geometry optimzed in LAMMPS
_audit_creation_date              2020-12-01 
_audit_creation_method            'lammps2cif' 
_symmetry_space_group_name_H-M    'P1' 
_symmetry_Int_Tables_number       1 
_symmetry_cell_setting            triclinic 
loop_ 
_symmetry_equiv_pos_as_xyz 
  x,y,z 
_cell_length_a                    69.45049636 
_cell_length_b                    69.66306398651297 
_cell_length_c                    69.75646173348918 
_cell_angle_alpha                 90.65747295119944 
_cell_angle_beta                  89.5655111217074 
_cell_angle_gamma                 88.7662052498353 
loop_ 
_atom_site_label 
_atom_site_type_symbol 
_atom_site_fract_x 
_atom_site_fract_y 
_atom_site_fract_z 
_atom_site_charge 
Zr1        Zr  0.81458705  0.77110629  0.79886957     2.17500
O2          O  0.80505215  0.74009519  0.78614740    -0.51700
O3          O  0.83192374  0.76109687  0.82718355    -0.74900
O4          O  0.84587450  0.75627707  0.78850805    -0.81700
O5          O  0.77570227  0.78437500  0.83570484    -0.83500
O6          O  0.85868687  0.77532703  0.76561318    -0.79100
O7          O  0.79495149  0.75930661  0.82543560    -0.90700
O8          O  0.84526051  0.78839452  0.83890389    -0.76700
O9          O  0.84092422  0.79146482  0.79382183    -0.86200
O10         O  0.81155808  0.79640625  0.82203775    -0.85900
O11         O  0.81033935  0.78281820  0.76657445    -0.72600
O12         O  0.78399349  0.78745265  0.79289844    -0.84800
Zr13       Zr  0.80704261  0.84440583  0.78171983     2.26400
Zr14       Zr  0.83742032  0.80300849  0.76199909     2.06300
Zr15       Zr  0.78182273  0.81249346  0.81670961     2.10000
Zr16       Zr  0.83898071  0.81546163  0.81793238     1.78800
O17         O  0.74729557  0.80717302  0.81619082    -0.93600
O18         O  0.87360919  0.80975065  0.81432980    -0.41400
O19         O  0.80915606  0.83274587  0.81369005    -0.78000
O20         O  0.83721726  0.82798114  0.78609419    -0.96700
O21         O  0.80830707  0.82060066  0.75716530    -0.90000
O22         O  0.77921607  0.82543260  0.78571827    -0.92800
C23         C  0.84120841  0.77051600  0.83986518     1.00900
C24         C  0.78240871  0.76713017  0.83697109     1.13800
C25         C  0.85932881  0.76060118  0.77647034     1.04600
O26         O  0.87056155  0.80999725  0.75338353    -0.95000
O27         O  0.84161122  0.83054615  0.74152490    -0.90700
O28         O  0.82677935  0.85618304  0.75618331    -0.83900
C29         C  0.83729798  0.84852223  0.74286273     1.11300
O30         O  0.76967789  0.77240029  0.74622590    -0.97000
Zr31       Zr  0.78093071  0.80163622  0.76148491     1.88900
O32         O  0.78934209  0.85425984  0.75453544    -0.73600
O33         O  0.83280620  0.78642845  0.73151097    -0.52900
O34         O  0.78595529  0.80128357  0.72689758    -0.97600
O35         O  0.74685784  0.79588047  0.76695520    -0.54800
O36         O  0.76567714  0.83267333  0.75126234    -0.74100
C37         C  0.77252806  0.84968680  0.74945278     0.98200
O38         O  0.81927174  0.87526009  0.79236792    -0.63000
O39         O  0.78101881  0.82392592  0.84986527    -0.57800
O40         O  0.78198757  0.86392797  0.79708987    -0.94400
O41         O  0.76730249  0.84441468  0.81831737    -0.92900
O42         O  0.83507894  0.82724846  0.85078075    -0.93200
O43         O  0.85501345  0.84574621  0.82331123    -0.92000
C44         C  0.76929577  0.86065876  0.81005977     1.17100
H45         H  0.81101977  0.79199992  0.83506733     0.33000
H46         H  0.84772213  0.83658134  0.78391011     0.43800
H47         H  0.76719605  0.83254256  0.78488061     0.37400
H48         H  0.81093611  0.77207618  0.75769475     0.33900
H49         H  0.87636094  0.79740640  0.82075181     0.25600
H50         H  0.82719255  0.79635203  0.72304130     0.31600
H51         H  0.77529551  0.80931337  0.72175910     0.37500
H52         H  0.84682770  0.82272886  0.85746966     0.31900
H53         H  0.76896410  0.81887176  0.85531570     0.30800
H54         H  0.74325648  0.80757267  0.82983659     0.32500
H55         H  0.74183341  0.80773693  0.77335758     0.31500
H56         H  0.84451098  0.85558608  0.82322121     0.35500
H57         H  0.83346643  0.87376037  0.79156855     0.28200
H58         H  0.79079604  0.74067511  0.78645171     0.32400
H59         H  0.77398443  0.76198616  0.75484480     0.35300
H60         H  0.79143090  0.81656001  0.85627386     0.27900
H61         H  0.81589979  0.88430018  0.78200324     0.40800
H62         H  0.87485823  0.81900490  0.76348436     0.30800
H63         H  0.87561890  0.80685356  0.80052012     0.38400
H64         H  0.74658467  0.78603957  0.77707898     0.30300
H65         H  0.84600658  0.78411335  0.72641626     0.30400
H66         H  0.80861313  0.73085846  0.79627367     0.30600
Zr67       Zr  0.80294630  0.92872165  0.94621958     2.17500
O68         O  0.79176336  0.93685223  0.97852740    -0.51700
O69         O  0.82650574  0.90409014  0.95320770    -0.74900
O70         O  0.78818983  0.89807870  0.95696632    -0.81700
O71         O  0.83939842  0.96983706  0.94105477    -0.83500
O72         O  0.76756728  0.88836781  0.93370433    -0.79100
O73         O  0.83171972  0.94487555  0.96024744    -0.90700
O74         O  0.83490386  0.89156191  0.92397315    -0.76700
O75         O  0.79999922  0.90615780  0.92049354    -0.86200
O76         O  0.82686932  0.93610448  0.92288333    -0.85900
O77         O  0.77058186  0.93276606  0.93381257    -0.72600
O78         O  0.79481062  0.96094836  0.93574518    -0.84800
Zr79       Zr  0.78676536  0.94870658  0.87507388     2.26400
Zr80       Zr  0.76852816  0.91036833  0.90752392     2.06300
Zr81       Zr  0.81953109  0.96810955  0.91272443     2.10000
Zr82       Zr  0.82476674  0.91283631  0.89827246     1.78800
O83         O  0.81169630  0.00132339  0.92138588    -0.93600
O84         O  0.82338719  0.88050590  0.88470151    -0.41400
O85         O  0.81880030  0.94492931  0.88716098    -0.78000
O86         O  0.79345710  0.91637274  0.88464728    -0.96700
O87         O  0.76116964  0.94144173  0.89625331    -0.90000
O88         O  0.78823098  0.97223945  0.89992637    -0.92800
C89         C  0.83479359  0.89143510  0.94239914     1.00900
C90         C  0.84245431  0.95922323  0.95566355     1.13800
C91         C  0.77594413  0.88615400  0.94981686     1.04600
O92         O  0.76418599  0.87715372  0.89746470    -0.95000
O93         O  0.75568572  0.90641699  0.87547798    -0.90700
O94         O  0.76263960  0.93222345  0.85734563    -0.83900
C95         C  0.75488626  0.91596046  0.85983207     1.11300
O96         O  0.75348666  0.98133416  0.95068860    -0.97000
Zr97       Zr  0.76299768  0.96423264  0.92138951     1.88900
O98         O  0.76381462  0.97422736  0.87049901    -0.73600
O99         O  0.73451114  0.91378671  0.91585366    -0.52900
O100        O  0.73258481  0.95379037  0.93494299    -0.97600
O101        O  0.75921249  0.99909013  0.92004666    -0.54800
O102        O  0.74172924  0.96840322  0.89310912    -0.74100
C103        C  0.74640768  0.97335497  0.87598109     0.98200
O104        O  0.79692991  0.94051857  0.84235228    -0.63000
O105        O  0.85320966  0.97715422  0.91057842    -0.57800
O106        O  0.80232191  0.97477187  0.86043364    -0.94400
O107        O  0.82632864  0.98140300  0.88107690    -0.92900
O108        O  0.85922316  0.91855798  0.89992994    -0.93200
O109        O  0.83953688  0.90820114  0.86669371    -0.92000
C110        C  0.81816848  0.98257446  0.86458473     1.17100
H111        H  0.83980008  0.93489894  0.92772510     0.33000
H112        H  0.79265189  0.90772747  0.87377031     0.43800
H113        H  0.78663437  0.98512547  0.89514701     0.37400
H114        H  0.76139661  0.92954713  0.94367257     0.33900
H115        H  0.83618300  0.87459738  0.88733390     0.25600
H116        H  0.72766975  0.90943753  0.90423819     0.31600
H117        H  0.72316682  0.95523773  0.92444648     0.37500
H118        H  0.86070254  0.93169826  0.89494109     0.31900
H119        H  0.85905950  0.96822990  0.90092788     0.30800
H120        H  0.81900859  0.00373616  0.93326702     0.32500
H121        H  0.75607115  0.00196440  0.90654740     0.31500
H122        H  0.84347556  0.92116124  0.86275966     0.35500
H123        H  0.81103146  0.94233426  0.84219602     0.28200
H124        H  0.78006629  0.94494877  0.97657208     0.32400
H125        H  0.76231604  0.97622327  0.96056396     0.35300
H126        H  0.85321362  0.98989425  0.90443535     0.27900
H127        H  0.79562698  0.92642471  0.84120329     0.40800
H128        H  0.75044494  0.87465458  0.90013898     0.30800
H129        H  0.81442172  0.87369683  0.89323296     0.38400
H130        H  0.77230462  0.00410426  0.92186681     0.30300
H131        H  0.73220177  0.90365004  0.92537506     0.30400
H132        H  0.80136101  0.94583451  0.98364508     0.30600
Zr133      Zr  0.96213363  0.91847644  0.80844488     2.17500
O134        O  0.99354743  0.93169513  0.80156337    -0.51700
O135        O  0.97112232  0.89509481  0.83268927    -0.74900
O136        O  0.97074600  0.93305588  0.83986543    -0.81700
O137        O  0.96294498  0.88163378  0.76712589    -0.83500
O138        O  0.94311384  0.94709272  0.85139766    -0.79100
O139        O  0.98046601  0.89175973  0.79264614    -0.90700
O140        O  0.94344577  0.87975618  0.84008823    -0.76700
O141        O  0.93578385  0.91841612  0.83021607    -0.86200
O142        O  0.94202772  0.89250371  0.79984328    -0.85900
O143        O  0.94595830  0.94938349  0.80374603    -0.72600
O144        O  0.95084816  0.92576434  0.77624117    -0.84800
Zr145      Zr  0.88872587  0.92699143  0.78753289     2.26400
Zr146      Zr  0.92000700  0.94855355  0.82624229     2.06300
Zr147      Zr  0.93199686  0.89859661  0.76787403     2.10000
Zr148      Zr  0.91631314  0.89215938  0.82210214     1.78800
O149        O  0.94650099  0.90113553  0.73614238    -0.93600
O150        O  0.90513979  0.89401071  0.85527021    -0.41400
O151        O  0.90551470  0.89685577  0.79001338    -0.78000
O152        O  0.89927439  0.92218099  0.81971250    -0.96700
O153        O  0.90707164  0.95418534  0.79544699    -0.90000
O154        O  0.91417458  0.92799432  0.76449104    -0.92800
C155        C  0.96155172  0.88253139  0.84184693     1.00900
C156        C  0.97760687  0.88040737  0.77819495     1.13800
C157        C  0.96051477  0.94119111  0.85337035     1.04600
O158        O  0.90434598  0.95186208  0.85748651    -0.95000
O159        O  0.89020638  0.96582528  0.82625426    -0.90700
O160        O  0.87050414  0.95300863  0.80394396    -0.83900
C161        C  0.87428375  0.96525505  0.81734487     1.11300
O162        O  0.96133138  0.96839633  0.75972118    -0.97000
Zr163      Zr  0.93167400  0.95540137  0.77249779     1.88900
O164        O  0.87771358  0.94700630  0.76262333    -0.73600
O165        O  0.93156780  0.98133683  0.82755900    -0.52900
O166        O  0.93575639  0.98838595  0.78338457    -0.97600
O167        O  0.93421645  0.95710703  0.73767169    -0.54800
O168        O  0.89948613  0.97073138  0.76310671    -0.74100
C169        C  0.88240718  0.96418269  0.75951015     0.98200
O170        O  0.85772447  0.91344912  0.79577388    -0.63000
O171        O  0.92479872  0.86462660  0.76447179    -0.57800
O172        O  0.87914295  0.90817049  0.75996377    -0.94400
O173        O  0.90569142  0.89429570  0.74582907    -0.92900
O174        O  0.91887622  0.85785966  0.81498064    -0.93200
O175        O  0.88528165  0.87681381  0.82504508    -0.92000
C176        C  0.88756702  0.89817958  0.74659723     1.17100
H177        H  0.94835840  0.88010462  0.80087390     0.33000
H178        H  0.88839585  0.92256682  0.82843626     0.43800
H179        H  0.90944038  0.92944939  0.75160793     0.37400
H180        H  0.95466874  0.95952658  0.80698836     0.33900
H181        H  0.90558261  0.88056110  0.85971776     0.25600
H182        H  0.92002835  0.98956430  0.82528819     0.31600
H183        H  0.92273406  0.99276156  0.78762515     0.37500
H184        H  0.91972454  0.85164960  0.82765335     0.31900
H185        H  0.93223953  0.85822886  0.77472394     0.30800
H186        H  0.95804898  0.90898697  0.73812080     0.32500
H187        H  0.92085858  0.95624605  0.73293131     0.31500
H188        H  0.88138029  0.87411052  0.81167407     0.35500
H189        H  0.85793241  0.91217400  0.80989205     0.28200
H190        H  0.99246013  0.94522586  0.80600936     0.32400
H191        H  0.97130525  0.95842650  0.76237752     0.35300
H192        H  0.91119638  0.86358088  0.76862009     0.27900
H193        H  0.84813667  0.92386405  0.79341088     0.40800
H194        H  0.90479672  0.93875504  0.86282970     0.30800
H195        H  0.91567727  0.90029671  0.86227781     0.38400
H196        H  0.94050128  0.94479425  0.73368570     0.30300
H197        H  0.93468277  0.98364767  0.84120341     0.30400
H198        H  0.99405263  0.93248257  0.78740501     0.30600
Zr199      Zr  0.89050199  0.78220162  0.94789136     2.17500
O200        O  0.85567633  0.78268197  0.95307993    -0.51700
O201        O  0.88681177  0.76022767  0.97396353    -0.74900
O202        O  0.87359525  0.76591197  0.92193227    -0.81700
O203        O  0.89738831  0.83123157  0.97121668    -0.83500
O204        O  0.89519770  0.74893630  0.90365426    -0.79100
O205        O  0.87467175  0.81121626  0.96004780    -0.90700
O206        O  0.90792779  0.73662696  0.96753913    -0.76700
O207        O  0.91240819  0.75613694  0.94147151    -0.86200
O208        O  0.91378968  0.78374454  0.97316431    -0.85900
O209        O  0.90333692  0.78798844  0.91627573    -0.72600
O210        O  0.90571100  0.81225935  0.94484913    -0.84800
Zr211      Zr  0.96439679  0.79440277  0.93223493     2.26400
Zr212      Zr  0.92616056  0.76214699  0.91098456     2.06300
Zr213      Zr  0.92868371  0.81413887  0.96970996     2.10000
Zr214      Zr  0.93583874  0.75760582  0.96607922     1.78800
O215        O  0.92731449  0.84538569  0.98574264    -0.93600
O216        O  0.94960443  0.72563394  0.95987095    -0.41400
O217        O  0.95141123  0.78835940  0.96380594    -0.78000
O218        O  0.95033822  0.76312976  0.93523930    -0.96700
O219        O  0.94071018  0.79265812  0.90783051    -0.90000
O220        O  0.94189981  0.82004385  0.93862044    -0.92800
C221        C  0.89079820  0.74251358  0.97169288     1.00900
C222        C  0.87989244  0.82752246  0.96671241     1.13800
C223        C  0.87802638  0.75484888  0.90759870     1.04600
O224        O  0.93063368  0.72741619  0.90900546    -0.95000
O225        O  0.95604710  0.75611207  0.89419606    -0.90700
O226        O  0.97847310  0.77697344  0.90498633    -0.83900
C227        C  0.97255881  0.76391658  0.89342083     1.11300
O228        O  0.88695353  0.83166916  0.90621070    -0.97000
Zr229      Zr  0.91853671  0.81830516  0.91416350     1.88900
O230        O  0.97375885  0.81783676  0.90818733    -0.73600
O231        O  0.92022261  0.76560921  0.87676651    -0.52900
O232        O  0.91219532  0.81663244  0.87989555    -0.97600
O233        O  0.91365580  0.85206855  0.92287808    -0.54800
O234        O  0.94583023  0.83279902  0.89932032    -0.74100
C235        C  0.96410102  0.83030578  0.89853380     0.98200
O236        O  0.99558800  0.78180992  0.94251509    -0.63000
O237        O  0.93001633  0.80556605  0.00344022    -0.57800
O238        O  0.98049978  0.82012301  0.94926197    -0.94400
O239        O  0.95914061  0.83068201  0.97215759    -0.92900
O240        O  0.93036406  0.75506620  0.00048325    -0.93200
O241        O  0.96633760  0.75009785  0.98159977    -0.92000
C242        C  0.97527281  0.83144436  0.96311061     1.17100
H243        H  0.90813244  0.78300799  0.98581494     0.33000
H244        H  0.96006645  0.75328301  0.93272358     0.43800
H245        H  0.94759096  0.83253487  0.93793693     0.37400
H246        H  0.89363594  0.78831015  0.90645080     0.33900
H247        H  0.94259882  0.71712522  0.96866551     0.25600
H248        H  0.91713819  0.75255584  0.87211817     0.31600
H249        H  0.92405863  0.81082100  0.87414692     0.37500
H250        H  0.93619940  0.76666086  0.00609882     0.31900
H251        H  0.93920485  0.81463353  0.00914958     0.30800
H252        H  0.92797144  0.85481986  0.97524560     0.32500
H253        H  0.92659655  0.85772932  0.92229453     0.31500
H254        H  0.97041341  0.76241739  0.98732261     0.35500
H255        H  0.99477550  0.78201923  0.95669516     0.28200
H256        H  0.85174435  0.76912057  0.95242863     0.32400
H257        H  0.87807794  0.82599338  0.91565711     0.35300
H258        H  0.91731420  0.80973001  0.00874202     0.27900
H259        H  0.99550484  0.76799212  0.93903035     0.40800
H260        H  0.92219298  0.72241333  0.91921625     0.30800
H261        H  0.94499763  0.72205978  0.94695363     0.38400
H262        H  0.91036640  0.85202228  0.93671465     0.30300
H263        H  0.90792857  0.77300622  0.87592515     0.30400
H264        H  0.85004085  0.78868276  0.94154447     0.30600
Zr265      Zr  0.30361439  0.47482068  0.93897361     2.17500
O266        O  0.28345710  0.50203087  0.94943856    -0.51700
O267        O  0.32389628  0.49239021  0.91787393    -0.74900
O268        O  0.32994894  0.49161732  0.95610106    -0.81700
O269        O  0.28508049  0.45258512  0.89203374    -0.83500
O270        O  0.32858364  0.48100492  0.98625698    -0.79100
O271        O  0.28861041  0.48154901  0.90683509    -0.90700
O272        O  0.35031454  0.47251942  0.91444302    -0.76700
O273        O  0.33199905  0.46098449  0.95225366    -0.86200
O274        O  0.31693090  0.45229781  0.91638181    -0.85900
O275        O  0.29441172  0.45966670  0.96901008    -0.72600
O276        O  0.27976997  0.45024164  0.93615615    -0.84800
Zr277      Zr  0.31551145  0.40086100  0.95540625     2.26400
Zr278      Zr  0.32391998  0.44683383  0.98217510     2.06300
Zr279      Zr  0.29409484  0.42796230  0.91375550     2.10000
Zr280      Zr  0.34630919  0.44069441  0.92911472     1.78800
O281        O  0.26132465  0.42385800  0.90246195    -0.93600
O282        O  0.37672384  0.45053737  0.94287495    -0.41400
O283        O  0.32394842  0.41529496  0.92548544    -0.78000
O284        O  0.33893188  0.42537806  0.95905309    -0.96700
O285        O  0.30134007  0.42185498  0.97885524    -0.90000
O286        O  0.28592357  0.41234643  0.94239468    -0.92800
C287        C  0.34075424  0.48832021  0.91133479     1.00900
C288        C  0.28434546  0.47089571  0.89207776     1.13800
C289        C  0.33664239  0.49097030  0.97335278     1.04600
O290        O  0.35287663  0.45457621  0.99988024    -0.95000
O291        O  0.33939193  0.42057047  0.99949247    -0.90700
O292        O  0.32634733  0.39350731  0.98742687    -0.83900
C293        C  0.33699580  0.40234246  0.99942047     1.11300
O294        O  0.24767126  0.45735178  0.97514675    -0.97000
Zr295      Zr  0.27206224  0.43347860  0.96541315     1.88900
O296        O  0.29014591  0.38099920  0.96639036    -0.73600
O297        O  0.30466610  0.45033715  0.01134844    -0.52900
O298        O  0.26399932  0.43360408  0.99945304    -0.97600
O299        O  0.24213075  0.43016713  0.94780712    -0.54800
O300        O  0.26307874  0.39946822  0.97130336    -0.74100
C301        C  0.27220767  0.38305748  0.97026483     0.98200
O302        O  0.34133705  0.37665714  0.95453308    -0.63000
O303        O  0.30794716  0.42021301  0.88231892    -0.57800
O304        O  0.30884458  0.37688670  0.93104618    -0.94400
O305        O  0.29284052  0.39432917  0.90857810    -0.92900
O306        O  0.35399329  0.43152818  0.89609646    -0.93200
O307        O  0.37291481  0.41742238  0.92672835    -0.92000
C308        C  0.29918667  0.37861670  0.91555672     1.17100
H309        H  0.31920235  0.45762429  0.90387855     0.33000
H310        H  0.35071635  0.41992574  0.96412368     0.43800
H311        H  0.27709376  0.40233526  0.93918807     0.37400
H312        H  0.28895829  0.46925810  0.97769767     0.33900
H313        H  0.38137573  0.46089981  0.93455067     0.25600
H314        H  0.30357568  0.43709397  0.01619167     0.31600
H315        H  0.27010679  0.42172056  0.00444843     0.37500
H316        H  0.35034022  0.41790822  0.89492087     0.31900
H317        H  0.31724990  0.40950111  0.88447014     0.30800
H318        H  0.25855483  0.41014415  0.90446890     0.32500
H319        H  0.23364319  0.42296607  0.95648848     0.31500
H320        H  0.36666459  0.40479612  0.92723312     0.35500
H321        H  0.35187773  0.38229350  0.96205661     0.28200
H322        H  0.27279921  0.49622480  0.95670459     0.32400
H323        H  0.24636867  0.46592786  0.96398490     0.35300
H324        H  0.29734448  0.41434038  0.87504849     0.27900
H325        H  0.33664294  0.36603230  0.96251189     0.40800
H326        H  0.36323712  0.45459793  0.99005249     0.30800
H327        H  0.37312797  0.45694014  0.95515260     0.38400
H328        H  0.24530431  0.42095948  0.93729728     0.30300
H329        H  0.31328739  0.45670031  0.02057606     0.30400
H330        H  0.27737173  0.50677160  0.93755698     0.30600
Zr331      Zr  0.41748400  0.43671235  0.77975756     2.17500
O332        O  0.43387103  0.44415238  0.74989047    -0.51700
O333        O  0.39552145  0.41196526  0.76921243    -0.74900
O334        O  0.43439541  0.40572170  0.77203379    -0.81700
O335        O  0.39287564  0.48144423  0.77423955    -0.83500
O336        O  0.44984077  0.39639056  0.79911792    -0.79100
O337        O  0.39143349  0.45224738  0.76120504    -0.90700
O338        O  0.38071715  0.40194740  0.79643431    -0.76700
O339        O  0.41660928  0.41534649  0.80603290    -0.86200
O340        O  0.38914619  0.44532995  0.79813944    -0.85900
O341        O  0.44659483  0.44273241  0.79787176    -0.72600
O342        O  0.42194133  0.46939159  0.79132421    -0.84800
Zr343      Zr  0.41847758  0.45991095  0.85238458     2.26400
Zr344      Zr  0.44512311  0.42080929  0.82389339     2.06300
Zr345      Zr  0.39298030  0.47798204  0.80858540     2.10000
Zr346      Zr  0.38791742  0.42300689  0.82332245     1.78800
O347        O  0.39429279  0.51177183  0.80017703    -0.93600
O348        O  0.38885654  0.39087171  0.83693528    -0.41400
O349        O  0.38981509  0.45568589  0.83436518    -0.78000
O350        O  0.41619191  0.42725589  0.84201997    -0.96700
O351        O  0.44799300  0.45257715  0.83622567    -0.90000
O352        O  0.42074093  0.48288204  0.82773339    -0.92800
C353        C  0.38418868  0.40090715  0.77835277     1.00900
C354        C  0.38438743  0.46934777  0.76366091     1.13800
C355        C  0.44478375  0.39359718  0.78166129     1.04600
O356        O  0.44749168  0.38885634  0.83760234    -0.95000
O357        O  0.45530285  0.42012019  0.85702441    -0.90700
O358        O  0.43918540  0.44326623  0.87427236    -0.83900
C359        C  0.45079766  0.42881442  0.87283496     1.11300
O360        O  0.46751981  0.48387785  0.78263754    -0.97000
Zr361      Zr  0.44976068  0.47490925  0.81127068     1.88900
O362        O  0.43831415  0.48416208  0.86514452    -0.73600
O363        O  0.47976019  0.42187378  0.81821642    -0.52900
O364        O  0.48405472  0.46689243  0.81059829    -0.97600
O365        O  0.44641703  0.50857042  0.80243011    -0.54800
O366        O  0.46129348  0.48906353  0.84247031    -0.74100
C367        C  0.45419636  0.49112536  0.85969607     0.98200
O368        O  0.40355304  0.45203770  0.88305491    -0.63000
O369        O  0.35815406  0.47900923  0.80423450    -0.57800
O370        O  0.39704709  0.48597672  0.86137638    -0.94400
O371        O  0.38121508  0.49753075  0.83544685    -0.92900
O372        O  0.35387433  0.42824195  0.81649498    -0.93200
O373        O  0.36880751  0.42014897  0.85252147    -0.92000
C374        C  0.38486616  0.49735937  0.85344143     1.17100
H375        H  0.37733452  0.44400090  0.79110958     0.33000
H376        H  0.41578502  0.41905886  0.85307534     0.43800
H377        H  0.42090659  0.49583193  0.83280769     0.37400
H378        H  0.45770214  0.43960877  0.78992180     0.33900
H379        H  0.39412720  0.38242192  0.82657164     0.25600
H380        H  0.48551986  0.41492131  0.82914240     0.31600
H381        H  0.48721206  0.46356245  0.82398716     0.37500
H382        H  0.35075405  0.44115438  0.82189013     0.31900
H383        H  0.35265417  0.48003329  0.81735151     0.30800
H384        H  0.38088670  0.51552495  0.79695079     0.32500
H385        H  0.44103846  0.51529216  0.81390723     0.31500
H386        H  0.36914612  0.43302858  0.85863787     0.35500
H387        H  0.39082603  0.45870340  0.88340397     0.28200
H388        H  0.44763271  0.44126338  0.75243285     0.32400
H389        H  0.46370845  0.47438842  0.77276876     0.35300
H390        H  0.35530847  0.49167295  0.79849013     0.27900
H391        H  0.40045897  0.43826651  0.88189067     0.40800
H392        H  0.46132834  0.38521310  0.83660762     0.30800
H393        H  0.39912566  0.39099282  0.84668765     0.38400
H394        H  0.43581542  0.50887310  0.79301421     0.30300
H395        H  0.48229362  0.41333736  0.80699765     0.30400
H396        H  0.43304645  0.45833677  0.74919745     0.30600
Zr397      Zr  0.29081548  0.26643978  0.81256450     2.17500
O398        O  0.27634528  0.23683447  0.80143203    -0.51700
O399        O  0.31122533  0.25419732  0.83838618    -0.74900
O400        O  0.31753174  0.24926073  0.79560041    -0.81700
O401        O  0.25406668  0.28408743  0.85071967    -0.83500
O402        O  0.32209026  0.26484212  0.76760983    -0.79100
O403        O  0.26913848  0.25690420  0.83929143    -0.90700
O404        O  0.33686763  0.27133495  0.83095562    -0.76700
O405        O  0.31956511  0.28254001  0.80377188    -0.86200
O406        O  0.29558175  0.28979894  0.83726695    -0.85900
O407        O  0.28545010  0.28190440  0.78180222    -0.72600
O408        O  0.26322631  0.28811932  0.81109924    -0.84800
Zr409      Zr  0.29365582  0.34221261  0.79937290     2.26400
Zr410      Zr  0.31452956  0.29841945  0.77387092     2.06300
Zr411      Zr  0.26836842  0.31132052  0.83591115     2.10000
Zr412      Zr  0.32532737  0.30417856  0.82903071     1.78800
O413        O  0.23394908  0.31765384  0.83997291    -0.93600
O414        O  0.35914698  0.30576401  0.81969877    -0.41400
O415        O  0.29850441  0.32580505  0.82889506    -0.78000
O416        O  0.32121362  0.32061236  0.79941663    -0.96700
O417        O  0.28788370  0.32050740  0.77347171    -0.90000
O418        O  0.26363772  0.32746399  0.80628956    -0.92800
C419        C  0.32869809  0.25893915  0.84131125     1.00900
C420        C  0.25722616  0.26593493  0.85081930     1.13800
C421        C  0.32624094  0.25141157  0.77935072     1.04600
O422        O  0.34665973  0.29168513  0.76088398    -0.95000
O423        O  0.33254997  0.32630268  0.76265127    -0.90700
O424        O  0.31869046  0.35220644  0.77776179    -0.83900
C425        C  0.33129519  0.34444347  0.76646871     1.11300
O426        O  0.24037232  0.27857584  0.76761870    -0.97000
Zr427      Zr  0.25871072  0.30473888  0.78129347     1.88900
O428        O  0.26808336  0.35764517  0.78178815    -0.73600
O429        O  0.30165113  0.29662323  0.74155521    -0.52900
O430        O  0.25708847  0.30187877  0.74651672    -0.97600
O431        O  0.22595449  0.30424554  0.79407881    -0.54800
O432        O  0.24654028  0.33629227  0.77049556    -0.74100
C433        C  0.25299957  0.35339747  0.77238887     0.98200
O434        O  0.29959397  0.37661034  0.79859392    -0.63000
O435        O  0.27352203  0.31601003  0.87019287    -0.57800
O436        O  0.29330561  0.35662973  0.83138388    -0.94400
O437        O  0.26532296  0.34549264  0.84111446    -0.92900
O438        O  0.32559483  0.30279252  0.86391480    -0.93200
O439        O  0.34460038  0.32915585  0.84353315    -0.92000
C440        C  0.28054440  0.35465531  0.84450756     1.17100
H441        H  0.29610092  0.28418372  0.84984963     0.33000
H442        H  0.33322748  0.32709954  0.79780279     0.43800
H443        H  0.25304096  0.33660845  0.80755001     0.37400
H444        H  0.28334299  0.27209967  0.77218699     0.33900
H445        H  0.36597668  0.29680769  0.82837469     0.25600
H446        H  0.31256883  0.30005534  0.73315077     0.31600
H447        H  0.26272550  0.31383432  0.74165923     0.37500
H448        H  0.33821229  0.29677884  0.86704457     0.31900
H449        H  0.26416282  0.30779450  0.87678718     0.30800
H450        H  0.23291382  0.32710879  0.85065814     0.32500
H451        H  0.22423710  0.31650493  0.80125921     0.31500
H452        H  0.34504265  0.33936966  0.83378728     0.35500
H453        H  0.28832406  0.38288802  0.80502917     0.28200
H454        H  0.27478391  0.23858457  0.78746099     0.32400
H455        H  0.24787510  0.26678421  0.77071469     0.35300
H456        H  0.28625652  0.30999379  0.87278841     0.27900
H457        H  0.31050521  0.37873315  0.80737415     0.40800
H458        H  0.35547203  0.29427638  0.77165401     0.30800
H459        H  0.35988889  0.29935030  0.80697249     0.38400
H460        H  0.22619769  0.29427365  0.80408321     0.30300
H461        H  0.29990895  0.28274245  0.73909887     0.30400
H462        H  0.26303086  0.23739092  0.80661326     0.30600
Zr463      Zr  0.41287920  0.27637186  0.93249600     2.17500
O464        O  0.42964332  0.24598984  0.93833929    -0.51700
O465        O  0.38816381  0.26452680  0.91114061    -0.74900
O466        O  0.38768748  0.25917006  0.95040713    -0.81700
O467        O  0.43517017  0.29769483  0.88763267    -0.83500
O468        O  0.38829974  0.27001446  0.98102283    -0.79100
O469        O  0.42752585  0.26885017  0.90034696    -0.90700
O470        O  0.36478700  0.28793390  0.91027756    -0.76700
O471        O  0.38639940  0.29219628  0.94806276    -0.86200
O472        O  0.40297960  0.30213466  0.91245057    -0.85900
O473        O  0.42440049  0.28772033  0.96353613    -0.72600
O474        O  0.43999592  0.29761702  0.93141178    -0.84800
Zr475      Zr  0.41156063  0.34933927  0.95525373     2.26400
Zr476      Zr  0.39696730  0.30329150  0.97864642     2.06300
Zr477      Zr  0.42955225  0.32309073  0.91094973     2.10000
Zr478      Zr  0.37533587  0.31647668  0.92744236     1.78800
O479        O  0.46262478  0.32263941  0.89912000    -0.93600
O480        O  0.34473026  0.30707601  0.94156645    -0.41400
O481        O  0.40129485  0.33847641  0.92440631    -0.78000
O482        O  0.38495389  0.32828461  0.95820031    -0.96700
O483        O  0.42251336  0.32524258  0.97670186    -0.90000
O484        O  0.43961494  0.33487180  0.94121253    -0.92800
C485        C  0.37176918  0.27126608  0.90565169     1.00900
C486        C  0.43349911  0.27943627  0.88641885     1.13800
C487        C  0.38132882  0.25934501  0.96788128     1.04600
O488        O  0.36641487  0.29835043  0.99499813    -0.95000
O489        O  0.38627344  0.32981666  0.99960644    -0.90700
O490        O  0.39629486  0.35715340  0.98553985    -0.83900
C491        C  0.38766777  0.34817048  0.99891741     1.11300
O492        O  0.47031083  0.28270750  0.96913241    -0.97000
Zr493      Zr  0.45010890  0.31076998  0.96203305     1.88900
O494        O  0.43536864  0.36299869  0.97507353    -0.73600
O495        O  0.41488108  0.29397622  0.00704178    -0.52900
O496        O  0.45852459  0.30854608  0.99579302    -0.97600
O497        O  0.48017575  0.31211158  0.94382990    -0.54800
O498        O  0.46160022  0.34289112  0.97328209    -0.74100
C499        C  0.45314755  0.35917937  0.97766638     0.98200
O500        O  0.39261595  0.37860649  0.94977581    -0.63000
O501        O  0.41692773  0.33625254  0.88126234    -0.57800
O502        O  0.42807693  0.37259946  0.93593734    -0.94400
O503        O  0.43926375  0.35625472  0.90957656    -0.92900
O504        O  0.36817526  0.33028679  0.89629164    -0.93200
O505        O  0.35224906  0.34316639  0.93080499    -0.92000
C506        C  0.43766846  0.37143652  0.92015568     1.17100
H507        H  0.39980338  0.29785192  0.89967223     0.33000
H508        H  0.37402584  0.33489813  0.96409040     0.43800
H509        H  0.45017831  0.34351193  0.93990304     0.37400
H510        H  0.42852320  0.27685280  0.97107367     0.33900
H511        H  0.33657017  0.30334476  0.93061639     0.25600
H512        H  0.41765065  0.30625469  0.01364851     0.31600
H513        H  0.45253914  0.29663246  0.00029677     0.37500
H514        H  0.37060182  0.31969228  0.88694771     0.31900
H515        H  0.42666554  0.33261540  0.87135744     0.30800
H516        H  0.46199428  0.32937595  0.88671010     0.32500
H517        H  0.47946369  0.32438666  0.93684116     0.31500
H518        H  0.34165589  0.34030063  0.92186302     0.35500
H519        H  0.38158355  0.37429565  0.94205919     0.28200
H520        H  0.44287195  0.24786929  0.93342352     0.32400
H521        H  0.48298645  0.28783037  0.97274817     0.35300
H522        H  0.40570275  0.32828761  0.87820854     0.27900
H523        H  0.38694594  0.38254881  0.96230072     0.40800
H524        H  0.35675730  0.30518733  0.98707034     0.30800
H525        H  0.34759431  0.29488462  0.94823926     0.38400
H526        H  0.47908837  0.30210934  0.93371632     0.30300
H527        H  0.40524497  0.28784910  0.01537778     0.30400
H528        H  0.42391015  0.23688327  0.92911162     0.30600
Zr529      Zr  0.53043228  0.22535173  0.54901695     2.17500
O530        O  0.52016840  0.25766512  0.54020279    -0.51700
O531        O  0.55575686  0.23485030  0.57100656    -0.74900
O532        O  0.51676461  0.23566115  0.58034562    -0.81700
O533        O  0.55789105  0.21733486  0.50462680    -0.83500
O534        O  0.48725371  0.22277751  0.58173246    -0.79100
O535        O  0.55859878  0.23601439  0.53111213    -0.90700
O536        O  0.56632482  0.20659557  0.58365624    -0.76700
O537        O  0.52327625  0.20323009  0.57351265    -0.86200
O538        O  0.55448626  0.20038920  0.54607622    -0.85900
O539        O  0.49842069  0.21401137  0.54202230    -0.72600
O540        O  0.52638770  0.21064115  0.51766858    -0.84800
Zr541      Zr  0.51393729  0.15227153  0.53598834     2.26400
Zr542      Zr  0.49179396  0.19161028  0.56693321     2.06300
Zr543      Zr  0.55040178  0.18557939  0.51533506     2.10000
Zr544      Zr  0.54809605  0.17960110  0.57188453     1.78800
O545        O  0.55239783  0.18254529  0.48052844    -0.93600
O546        O  0.54165575  0.18044049  0.60629506    -0.41400
O547        O  0.54531317  0.16424785  0.54135465    -0.78000
O548        O  0.51665578  0.16715522  0.56704891    -0.96700
O549        O  0.48866062  0.17590099  0.53667451    -0.90000
O550        O  0.51948463  0.17282756  0.50954123    -0.92800
C551        C  0.56697254  0.22487402  0.58175721     1.00900
C552        C  0.56555700  0.23038446  0.51481715     1.13800
C553        C  0.50049577  0.23302728  0.58883781     1.04600
O554        O  0.48559651  0.18893984  0.60118393    -0.95000
O555        O  0.47669029  0.16200736  0.57607570    -0.90700
O556        O  0.49308788  0.13845114  0.55975669    -0.83900
C557        C  0.48097242  0.14429594  0.57261048     1.11300
O558        O  0.48321457  0.22836144  0.49984877    -0.97000
Zr559      Zr  0.49521311  0.19756729  0.51150090     1.88900
O560        O  0.49343361  0.14421364  0.50997964    -0.73600
O561        O  0.45817123  0.19939602  0.56027244    -0.52900
O562        O  0.46072803  0.20219508  0.51681328    -0.97600
O563        O  0.50196200  0.20554581  0.47823045    -0.54800
O564        O  0.48196838  0.17010220  0.49387429    -0.74100
C565        C  0.48343118  0.15193533  0.49678514     0.98200
O566        O  0.51046692  0.11747795  0.53688236    -0.63000
O567        O  0.58553667  0.18383952  0.51570460    -0.57800
O568        O  0.54296677  0.13438273  0.52599581    -0.94400
O569        O  0.56169992  0.15325320  0.50784302    -0.92900
O570        O  0.58162690  0.16883721  0.56943007    -0.93200
O571        O  0.55440098  0.14792176  0.58518308    -0.92000
C572        C  0.55778758  0.13705536  0.51529833     1.17100
H573        H  0.56739603  0.20515384  0.54704187     0.33000
H574        H  0.51480615  0.15836048  0.57745457     0.43800
H575        H  0.51959852  0.16598617  0.49742507     0.37400
H576        H  0.48927204  0.22464757  0.54275522     0.33900
H577        H  0.55423485  0.17736447  0.61224278     0.25600
H578        H  0.45305609  0.18754941  0.55443138     0.31600
H579        H  0.45466259  0.19670024  0.50524556     0.37500
H580        H  0.58765377  0.17348071  0.58139001     0.31900
H581        H  0.58995568  0.19617458  0.51057202     0.30800
H582        H  0.53897070  0.18348272  0.47595512     0.32500
H583        H  0.50323745  0.19304440  0.47140236     0.31500
H584        H  0.54934559  0.13886271  0.57550391     0.35500
H585        H  0.51445264  0.11245880  0.52408173     0.28200
H586        H  0.51725031  0.25662985  0.52636332     0.32400
H587        H  0.49037207  0.23803458  0.50728024     0.35300
H588        H  0.58911220  0.18413649  0.52940883     0.27900
H589        H  0.52041931  0.11268524  0.54583465     0.40800
H590        H  0.49810114  0.18466957  0.60657342     0.30800
H591        H  0.53921712  0.19416903  0.60949053     0.38400
H592        H  0.51516277  0.21063202  0.47833129     0.30300
H593        H  0.45193134  0.20025779  0.57307247     0.30400
H594        H  0.53206085  0.26523914  0.54073463     0.30600
Zr595      Zr  0.65296406  0.22398039  0.67370609     2.17500
O596        O  0.66531596  0.25457208  0.68477255    -0.51700
O597        O  0.63126124  0.23470811  0.64836111    -0.74900
O598        O  0.67137358  0.23481037  0.64499509    -0.81700
O599        O  0.61401346  0.21998351  0.71281880    -0.83500
O600        O  0.69485473  0.21247735  0.63807310    -0.79100
O601        O  0.62429863  0.23976850  0.68918732    -0.90700
O602        O  0.62034762  0.20689153  0.63544090    -0.76700
O603        O  0.65657721  0.19976397  0.64965408    -0.86200
O604        O  0.62721187  0.20228088  0.67813812    -0.85900
O605        O  0.68390320  0.20842446  0.67987968    -0.72600
O606        O  0.65737606  0.21009753  0.70533636    -0.84800
Zr607      Zr  0.66247312  0.14963749  0.68839791     2.26400
Zr608      Zr  0.68690082  0.18429278  0.65536088     2.06300
Zr609      Zr  0.63070671  0.18929214  0.70950912     2.10000
Zr610      Zr  0.63014441  0.17905681  0.65338674     1.78800
O611        O  0.63193858  0.19889290  0.74314147    -0.93600
O612        O  0.63510715  0.16888348  0.62015634    -0.41400
O613        O  0.63184303  0.16529530  0.68460786    -0.78000
O614        O  0.66044254  0.16283818  0.65703769    -0.96700
O615        O  0.68984957  0.16919096  0.68540633    -0.90000
O616        O  0.66050812  0.17251716  0.71393862    -0.92800
C617        C  0.62164841  0.22519262  0.63593011     1.00900
C618        C  0.61265135  0.23538588  0.70298312     1.13800
C619        C  0.68601299  0.22837491  0.63498375     1.04600
O620        O  0.68941112  0.17634675  0.62134565    -0.95000
O621        O  0.70233293  0.15333178  0.65116156    -0.90700
O622        O  0.68765687  0.13223901  0.67072953    -0.83900
C623        C  0.70025377  0.13651635  0.65796006     1.11300
O624        O  0.69507620  0.22013015  0.72981266    -0.97000
Zr625      Zr  0.68745632  0.19219010  0.71022981     1.88900
O626        O  0.68316265  0.13755474  0.71243592    -0.73600
O627        O  0.72109946  0.19018584  0.65929551    -0.52900
O628        O  0.72005716  0.20210022  0.70288410    -0.97600
O629        O  0.68742846  0.19054077  0.74517706    -0.54800
O630        O  0.70522981  0.16082192  0.71571023    -0.74100
C631        C  0.69992153  0.14308644  0.71665432     0.98200
O632        O  0.65082251  0.11892564  0.67666152    -0.63000
O633        O  0.59609087  0.18402316  0.70979585    -0.57800
O634        O  0.64240836  0.13634568  0.71295213    -0.94400
O635        O  0.62461068  0.16020764  0.72738934    -0.92900
O636        O  0.59517999  0.18277938  0.65444842    -0.93200
O637        O  0.61463280  0.14833784  0.64875428    -0.92000
C638        C  0.63019714  0.14257435  0.72554988     1.17100
H639        H  0.61470057  0.20834895  0.67664403     0.33000
H640        H  0.66188015  0.15282155  0.64740753     0.43800
H641        H  0.66104410  0.16639806  0.72627242     0.37400
H642        H  0.69398441  0.21765228  0.67843089     0.33900
H643        H  0.62198392  0.16848178  0.61473032     0.25600
H644        H  0.72573727  0.18002576  0.66804797     0.31600
H645        H  0.72754129  0.19880650  0.71445996     0.37500
H646        H  0.59105944  0.18111071  0.64097949     0.31900
H647        H  0.59462344  0.17009934  0.70737805     0.30800
H648        H  0.61838794  0.19861428  0.74763539     0.32500
H649        H  0.69518967  0.17890331  0.74822578     0.31500
H650        H  0.62523799  0.13922939  0.64521006     0.35500
H651        H  0.63688645  0.11909644  0.67977386     0.28200
H652        H  0.65822177  0.26429944  0.67718088     0.32400
H653        H  0.68872080  0.23105608  0.72324724     0.35300
H654        H  0.59206089  0.18601755  0.72333292     0.27900
H655        H  0.65133333  0.11986781  0.66251585     0.40800
H656        H  0.67875921  0.18374159  0.61535704     0.30800
H657        H  0.64106224  0.18000468  0.61390230     0.38400
H658        H  0.67410985  0.18743360  0.74898279     0.30300
H659        H  0.72696779  0.18668767  0.64671879     0.30400
H660        H  0.67866952  0.25477778  0.67971089     0.30600
Zr661      Zr  0.66225465  0.05958354  0.52305009     2.17500
O662        O  0.67219332  0.05073304  0.49053444    -0.51700
O663        O  0.63456327  0.08037029  0.51669100    -0.74900
O664        O  0.63292474  0.04346557  0.51140802    -0.81700
O665        O  0.69672178  0.10104692  0.53115740    -0.83500
O666        O  0.62331847  0.02504348  0.53620283    -0.79100
O667        O  0.67423357  0.08993657  0.51034463    -0.90700
O668        O  0.61969666  0.08408452  0.54570604    -0.76700
O669        O  0.64057095  0.05023939  0.54731281    -0.86200
O670        O  0.66363927  0.08307011  0.54807059    -0.85900
O671        O  0.67361046  0.02809262  0.53314244    -0.72600
O672        O  0.69501123  0.05826344  0.53488608    -0.84800
Zr673      Zr  0.68191954  0.04347263  0.59377050     2.26400
Zr674      Zr  0.65076246  0.01914697  0.55721929     2.06300
Zr675      Zr  0.69586341  0.08216742  0.55973373     2.10000
Zr676      Zr  0.64066017  0.07421545  0.57139388     1.78800
O677        O  0.72946566  0.08675046  0.55092789    -0.93600
O678        O  0.60934735  0.06267510  0.58147203    -0.41400
O679        O  0.67259614  0.07481911  0.58373174    -0.78000
O680        O  0.64963039  0.04302348  0.58251107    -0.96700
O681        O  0.68223311  0.01856178  0.57024807    -0.90000
O682        O  0.70599762  0.05176921  0.57119229    -0.92800
C683        C  0.62046057  0.08605147  0.52747091     1.00900
C684        C  0.68667587  0.10225991  0.51590347     1.13800
C685        C  0.62018055  0.03337868  0.52011798     1.04600
O686        O  0.62623488  0.99473656  0.55911378    -0.95000
O687        O  0.64609116  0.00603137  0.58916894    -0.90700
O688        O  0.67063160  0.01487398  0.60829634    -0.83900
C689        C  0.65499684  0.00609759  0.60529469     1.11300
O690        O  0.71651942  0.01990886  0.51477958    -0.97000
Zr691      Zr  0.70561192  0.02747771  0.54730996     1.88900
O692        O  0.70845458  0.02411980  0.60232340    -0.73600
O693        O  0.66446685  0.99071578  0.54113188    -0.52900
O694        O  0.70738158  0.99305203  0.54089318    -0.97600
O695        O  0.73825596  0.03769472  0.54031766    -0.54800
O696        O  0.72442354  0.01457588  0.57513156    -0.74100
C697        C  0.72215850  0.01529604  0.59361281     0.98200
O698        O  0.66888415  0.05214186  0.62531221    -0.63000
O699        O  0.68998715  0.11592074  0.56784397    -0.57800
O700        O  0.70347918  0.06349967  0.61112731    -0.94400
O701        O  0.71051151  0.08768648  0.59088424    -0.92900
O702        O  0.63681461  0.10897177  0.57431314    -0.93200
O703        O  0.63308232  0.08504380  0.60396341    -0.92000
C704        C  0.71125758  0.07948364  0.60731096     1.17100
H705        H  0.66017215  0.09574189  0.54361115     0.33000
H706        H  0.64072632  0.04000641  0.59267771     0.43800
H707        H  0.71856955  0.05250388  0.57694129     0.37400
H708        H  0.67336264  0.01947102  0.52220715     0.33900
H709        H  0.60074274  0.07419405  0.58140042     0.25600
H710        H  0.66270223  0.98017147  0.55033514     0.31600
H711        H  0.70525659  0.98706409  0.55351633     0.37500
H712        H  0.65008309  0.11386438  0.57396697     0.31900
H713        H  0.68659893  0.11615016  0.58165872     0.30800
H714        H  0.73624719  0.08879036  0.56318798     0.32500
H715        H  0.74620012  0.02572262  0.54054393     0.31500
H716        H  0.63266762  0.07316154  0.61158661     0.35500
H717        H  0.66791855  0.06634681  0.62537147     0.28200
H718        H  0.68445821  0.05744267  0.48851642     0.32400
H719        H  0.70963927  0.02938203  0.50669669     0.35300
H720        H  0.70282246  0.12179931  0.56716329     0.27900
H721        H  0.65533620  0.04802923  0.62504532     0.40800
H722        H  0.61503775  0.00123414  0.56546781     0.30800
H723        H  0.60496799  0.05472945  0.57054810     0.38400
H724        H  0.74226005  0.04494737  0.55184581     0.30300
H725        H  0.65544492  0.98792647  0.53058740     0.30400
H726        H  0.66284334  0.05755134  0.48224430     0.30600
Zr727      Zr  0.50504119  0.06298454  0.66436144     2.17500
O728        O  0.47514867  0.04974310  0.67622435    -0.51700
O729        O  0.49169322  0.08239980  0.63934761    -0.74900
O730        O  0.48951173  0.09364380  0.67707349    -0.81700
O731        O  0.52224359  0.02800734  0.62411313    -0.83500
O732        O  0.50593352  0.10428121  0.70310667    -0.79100
O733        O  0.49542976  0.04396847  0.63528920    -0.90700
O734        O  0.51610290  0.10208971  0.63100440    -0.76700
O735        O  0.52310090  0.09068737  0.67087799    -0.86200
O736        O  0.52975846  0.06408410  0.64053419    -0.85900
O737        O  0.51832833  0.05859817  0.69626446    -0.72600
O738        O  0.52478389  0.03422035  0.66904034    -0.84800
Zr739      Zr  0.57983179  0.06184879  0.67969521     2.26400
Zr740      Zr  0.53625548  0.08703952  0.70210366     2.06300
Zr741      Zr  0.54885229  0.03571005  0.64444167     2.10000
Zr742      Zr  0.54640102  0.09282148  0.64633387     1.78800
O743        O  0.54365938  0.00128877  0.64254940    -0.93600
O744        O  0.54387833  0.12658949  0.65579383    -0.41400
O745        O  0.56667166  0.06453564  0.64821080    -0.78000
O746        O  0.56032760  0.09041798  0.67757259    -0.96700
O747        O  0.55702518  0.05984318  0.70507760    -0.90000
O748        O  0.56289102  0.03289354  0.67516278    -0.92800
C749        C  0.49870391  0.09619706  0.62982707     1.00900
C750        C  0.50441031  0.03285272  0.62289641     1.13800
C751        C  0.49226038  0.10580597  0.69102877     1.04600
O752        O  0.54198766  0.12110950  0.70699805    -0.95000
O753        O  0.56323708  0.09248098  0.72301898    -0.90700
O754        O  0.58966123  0.07974448  0.70778675    -0.83900
C755        C  0.58143161  0.08924701  0.72159545     1.11300
O756        O  0.51230573  0.01427031  0.71170475    -0.97000
Zr757      Zr  0.54027360  0.03126038  0.70010983     1.88900
O758        O  0.59550407  0.04124989  0.70146065    -0.73600
O759        O  0.52202631  0.08150076  0.73353776    -0.52900
O760        O  0.53562291  0.03600653  0.73447980    -0.97600
O761        O  0.54166695  0.99665909  0.69445796    -0.54800
O762        O  0.57284864  0.02105396  0.71291490    -0.74100
C763        C  0.59043100  0.02702287  0.71141180     0.98200
O764        O  0.60760297  0.08018433  0.66979234    -0.63000
O765        O  0.56240704  0.03769458  0.61223579    -0.57800
O766        O  0.60027476  0.03849080  0.66238702    -0.94400
O767        O  0.58076674  0.02165479  0.64270961    -0.92900
O768        O  0.55086926  0.09538450  0.61180347    -0.93200
O769        O  0.57695646  0.10647358  0.63660532    -0.92000
C770        C  0.59713684  0.02481787  0.65030328     1.17100
H771        H  0.52475795  0.06462090  0.62767596     0.33000
H772        H  0.56799275  0.10154623  0.68019231     0.43800
H773        H  0.57096506  0.02152215  0.67613094     0.37400
H774        H  0.50790965  0.05786463  0.70546562     0.33900
H775        H  0.53912838  0.13322999  0.64422189     0.25600
H776        H  0.53262847  0.07582843  0.74116891     0.31600
H777        H  0.54855152  0.03901670  0.73942708     0.37500
H778        H  0.55685279  0.08293431  0.60781013     0.31900
H779        H  0.56029211  0.02489333  0.60640301     0.30800
H780        H  0.55343344  0.99553397  0.65113404     0.32500
H781        H  0.55515305  0.99367675  0.69058321     0.31500
H782        H  0.57382130  0.11977738  0.63265395     0.35500
H783        H  0.61854023  0.07447751  0.67693672     0.28200
H784        H  0.47092644  0.05866944  0.68665370     0.32400
H785        H  0.50322552  0.01452066  0.70082909     0.35300
H786        H  0.55350017  0.04643951  0.60534715     0.27900
H787        H  0.61002680  0.07630013  0.65627572     0.40800
H788        H  0.53703720  0.12403186  0.72007992     0.30800
H789        H  0.53291658  0.12739641  0.66493859     0.38400
H790        H  0.53413012  0.99466374  0.68263994     0.30300
H791        H  0.51990834  0.09449478  0.73916342     0.30400
H792        H  0.47921419  0.03787882  0.68289313     0.30600
Zr793      Zr  0.44288444  0.26834903  0.75967111     2.17500
O794        O  0.41615870  0.29166668  0.76018515    -0.51700
O795        O  0.44430907  0.26650176  0.79463784    -0.74900
O796        O  0.41185686  0.25286982  0.76452207    -0.81700
O797        O  0.47897824  0.30881681  0.75206747    -0.83500
O798        O  0.41188637  0.22368097  0.74941978    -0.79100
O799        O  0.44821804  0.30305293  0.76170235    -0.90700
O800        O  0.46716839  0.24470842  0.80344645    -0.76700
O801        O  0.44995080  0.23523879  0.76498676    -0.86200
O802        O  0.47606139  0.26677262  0.76817086    -0.85900
O803        O  0.43569306  0.25186993  0.73013371    -0.72600
O804        O  0.46056979  0.28054332  0.73295976    -0.84800
Zr805      Zr  0.49352874  0.22844230  0.71630102     2.26400
Zr806      Zr  0.44374293  0.21857930  0.73538779     2.06300
Zr807      Zr  0.49393558  0.27813287  0.74115364     2.10000
Zr808      Zr  0.48302217  0.23370310  0.77346641     1.78800
O809        O  0.50423403  0.30346877  0.71986614    -0.93600
O810        O  0.47383117  0.20414664  0.78910730    -0.41400
O811        O  0.50082124  0.24470008  0.74614077    -0.78000
O812        O  0.47698899  0.21636490  0.74399797    -0.96700
O813        O  0.46044173  0.23073309  0.70815662    -0.90000
O814        O  0.48705200  0.26184529  0.71158318    -0.92800
C815        C  0.45359517  0.25701717  0.80749530     1.00900
C816        C  0.46224180  0.31442625  0.75841085     1.13800
C817        C  0.40374831  0.23717449  0.75942823     1.04600
O818        O  0.43643409  0.19125837  0.75545413    -0.95000
O819        O  0.45619840  0.18877252  0.72027826    -0.90700
O820        O  0.48492600  0.19562625  0.70644314    -0.83900
C821        C  0.47117317  0.18401034  0.71015564     1.11300
O822        O  0.42768257  0.28764576  0.70059740    -0.97000
Zr823      Zr  0.45383645  0.26406805  0.70369096     1.88900
O824        O  0.49445647  0.23360600  0.68154048    -0.73600
O825        O  0.42147817  0.21043971  0.70985030    -0.52900
O826        O  0.42800378  0.25281816  0.68329546    -0.97600
O827        O  0.46418193  0.29352623  0.68849849    -0.54800
O828        O  0.46938130  0.25351852  0.67420671    -0.74100
C829        C  0.48411127  0.24308049  0.66948625     0.98200
O830        O  0.51829436  0.20313455  0.71739406    -0.63000
O831        O  0.51465905  0.28870610  0.76712851    -0.57800
O832        O  0.52552252  0.24158932  0.71295564    -0.94400
O833        O  0.52693736  0.26953822  0.73017117    -0.92900
O834        O  0.50911696  0.24710025  0.79218511    -0.93200
O835        O  0.51076704  0.21226435  0.77784404    -0.92000
C836        C  0.53463392  0.25603138  0.71962727     1.17100
H837        H  0.47834593  0.27452345  0.77944898     0.33000
H838        H  0.48068912  0.20306926  0.74581545     0.43800
H839        H  0.49499551  0.26680471  0.70143154     0.37400
H840        H  0.42215503  0.25339952  0.72732504     0.33900
H841        H  0.47536259  0.20676023  0.80298777     0.25600
H842        H  0.41778086  0.19707360  0.71249001     0.31600
H843        H  0.41798635  0.24832902  0.69225261     0.37500
H844        H  0.50367551  0.25898617  0.79818354     0.31900
H845        H  0.52059817  0.30051166  0.76227305     0.30800
H846        H  0.51605923  0.30846445  0.72578608     0.32500
H847        H  0.47580213  0.28987690  0.68087790     0.31500
H848        H  0.51075954  0.20353799  0.76654109     0.35500
H849        H  0.52619052  0.20466218  0.70565189     0.28200
H850        H  0.40921317  0.28962258  0.77241576     0.32400
H851        H  0.42507825  0.29224054  0.71387028     0.35300
H852        H  0.50584694  0.29335468  0.77747433     0.27900
H853        H  0.52680828  0.20678845  0.72809631     0.40800
H854        H  0.44903024  0.18479579  0.75775305     0.30800
H855        H  0.45973704  0.20351391  0.78730406     0.38400
H856        H  0.46909598  0.30150580  0.69914916     0.30300
H857        H  0.40964436  0.21821743  0.71250588     0.30400
H858        H  0.40726465  0.28733454  0.75006355     0.30600
Zr859      Zr  0.27281660  0.84080892  0.34321923     2.17500
O860        O  0.27376079  0.86575399  0.36774084    -0.51700
O861        O  0.25362619  0.85940226  0.32180225    -0.74900
O862        O  0.29536521  0.86494633  0.33267259    -0.81700
O863        O  0.23507953  0.81570323  0.37433564    -0.83500
O864        O  0.29838201  0.84854095  0.30579279    -0.79100
O865        O  0.24465516  0.84478064  0.36369641    -0.90700
O866        O  0.25031517  0.84237524  0.29417589    -0.76700
O867        O  0.28066647  0.83080374  0.31124591    -0.86200
O868        O  0.25006102  0.81740265  0.33395724    -0.85900
O869        O  0.30584470  0.82897092  0.34428690    -0.72600
O870        O  0.27666140  0.81587519  0.36620240    -0.84800
Zr871      Zr  0.29528636  0.76826533  0.32669663     2.26400
Zr872      Zr  0.31241329  0.81742402  0.31217604     2.06300
Zr873      Zr  0.25425227  0.79204671  0.35644299     2.10000
Zr874      Zr  0.25836498  0.80790816  0.30210546     1.78800
O875        O  0.25283029  0.78135918  0.38953166    -0.93600
O876        O  0.26908743  0.81026618  0.26891821    -0.41400
O877        O  0.26266961  0.78166671  0.32447945    -0.78000
O878        O  0.29037760  0.79311786  0.30294078    -0.96700
O879        O  0.31721668  0.79274212  0.33502762    -0.90000
O880        O  0.28679920  0.78032663  0.35813559    -0.92800
C881        C  0.24934729  0.85830711  0.30406421     1.00900
C882        C  0.23385997  0.83408233  0.37388794     1.13800
C883        C  0.30370271  0.86227051  0.31645774     1.04600
O884        O  0.32483801  0.82671937  0.28097759    -0.95000
O885        O  0.33155591  0.79310340  0.29593589    -0.90700
O886        O  0.32359631  0.76317469  0.30523885    -0.83900
C887        C  0.33443963  0.77490048  0.29610605     1.11300
O888        O  0.31108153  0.82636558  0.39324264    -0.97000
Zr889      Zr  0.30921414  0.80357594  0.36660339     1.88900
O890        O  0.32170721  0.75314309  0.34435531    -0.73600
O891        O  0.34306606  0.83060909  0.32188306    -0.52900
O892        O  0.34126468  0.81697724  0.36819011    -0.97600
O893        O  0.30478812  0.78953884  0.39825465    -0.54800
O894        O  0.32946113  0.77482490  0.36756438    -0.74100
C895        C  0.33166579  0.75864390  0.35878267     0.98200
O896        O  0.28614589  0.74189986  0.30569319    -0.63000
O897        O  0.22025699  0.78620047  0.35114412    -0.57800
O898        O  0.28132235  0.74462635  0.34853518    -0.94400
O899        O  0.25186422  0.75753490  0.35237317    -0.92900
O900        O  0.22335628  0.80876525  0.30009430    -0.93200
O901        O  0.24446416  0.78194767  0.28345605    -0.92000
C902        C  0.26519885  0.74595501  0.35773213     1.17100
H903        H  0.23705251  0.82259613  0.33436324     0.33000
H904        H  0.29369387  0.78808707  0.29035273     0.43800
H905        H  0.28821771  0.77112053  0.36821571     0.37400
H906        H  0.31455826  0.83899000  0.34787543     0.33900
H907        H  0.25729904  0.81379813  0.26176059     0.25600
H908        H  0.34946381  0.82014220  0.32907933     0.31600
H909        H  0.34995592  0.80673267  0.36293951     0.37500
H910        H  0.22049120  0.81708667  0.28901296     0.31900
H911        H  0.21974897  0.78073649  0.33799616     0.30800
H912        H  0.23930554  0.77757458  0.39149051     0.32500
H913        H  0.30788773  0.77565437  0.39686191     0.31500
H914        H  0.24032436  0.77250910  0.29308018     0.35500
H915        H  0.27345537  0.73792024  0.31063010     0.28200
H916        H  0.27161878  0.87787987  0.36073023     0.32400
H917        H  0.29753665  0.82900780  0.39715783     0.35300
H918        H  0.21718085  0.77536469  0.35962046     0.27900
H919        H  0.28321212  0.74811008  0.29332548     0.40800
H920        H  0.31516447  0.82213113  0.27173445     0.30800
H921        H  0.27691102  0.82197905  0.26868715     0.38400
H922        H  0.29070630  0.79014471  0.40056845     0.30300
H923        H  0.35066714  0.83137669  0.30986222     0.30400
H924        H  0.28741779  0.86578718  0.37167734     0.30600
Zr925      Zr  0.42705141  0.76836807  0.43143058     2.17500
O926        O  0.44607449  0.74145191  0.44360252    -0.51700
O927        O  0.40573248  0.75024556  0.41046474    -0.74900
O928        O  0.40026428  0.75235932  0.44815175    -0.81700
O929        O  0.45379817  0.78577842  0.38750391    -0.83500
O930        O  0.40208536  0.76526377  0.47736943    -0.79100
O931        O  0.44407890  0.75827570  0.40153277    -0.90700
O932        O  0.38282454  0.77247632  0.40230366    -0.76700
O933        O  0.39750544  0.78357733  0.44069626    -0.86200
O934        O  0.41887641  0.79027546  0.40671367    -0.85900
O935        O  0.43371562  0.78507543  0.46162477    -0.72600
O936        O  0.45221406  0.79233519  0.43170019    -0.84800
Zr937      Zr  0.41543845  0.84401631  0.44412517     2.26400
Zr938      Zr  0.40330664  0.79906041  0.47086304     2.06300
Zr939      Zr  0.44325498  0.81353000  0.40646452     2.10000
Zr940      Zr  0.38864378  0.80396488  0.41517830     1.78800
O941        O  0.47736366  0.81721443  0.39919637    -0.93600
O942        O  0.35609195  0.79678456  0.42587373    -0.41400
O943        O  0.41241386  0.82811976  0.41355172    -0.78000
O944        O  0.39221972  0.81930795  0.44519366    -0.96700
O945        O  0.42567435  0.82445866  0.47019484    -0.90000
O946        O  0.44652005  0.83099262  0.43576487    -0.92800
C947        C  0.39021712  0.75549144  0.40183842     1.00900
C948        C  0.45215764  0.76744957  0.38772635     1.13800
C949        C  0.39389152  0.75428478  0.46546489     1.04600
O950        O  0.37449816  0.79007468  0.48845258    -0.95000
O951        O  0.38078237  0.82308859  0.48210417    -0.90700
O952        O  0.38960137  0.85083887  0.46772323    -0.83900
C953        C  0.37833373  0.84083442  0.47829387     1.11300
O954        O  0.48116050  0.78900641  0.47207659    -0.97000
Zr955      Zr  0.45626419  0.81137799  0.46098277     1.88900
O956        O  0.43419395  0.86331985  0.46505419    -0.73600
O957        O  0.41946156  0.80164225  0.50156550    -0.52900
O958        O  0.45863801  0.80971208  0.49575981    -0.97600
O959        O  0.48844242  0.81724583  0.44838817    -0.54800
O960        O  0.46202394  0.84611575  0.46926314    -0.74100
C961        C  0.45176959  0.86193686  0.47010689     0.98200
O962        O  0.39466765  0.87048248  0.43362630    -0.63000
O963        O  0.43415496  0.82003361  0.37346213    -0.57800
O964        O  0.43149753  0.86595870  0.42242763    -0.94400
O965        O  0.44846842  0.84699410  0.40126069    -0.92900
O966        O  0.38546814  0.80996598  0.38098543    -0.93200
O967        O  0.36569070  0.82999858  0.40883800    -0.92000
C968        C  0.44331280  0.86340535  0.40826635     1.17100
H969        H  0.41781786  0.78410575  0.39432189     0.33000
H970        H  0.37932991  0.82431967  0.44718898     0.43800
H971        H  0.45611214  0.84071687  0.43456516     0.37400
H972        H  0.43790320  0.77587664  0.47106740     0.33900
H973        H  0.35190455  0.78587457  0.41782108     0.25600
H974        H  0.41093082  0.81019551  0.50943755     0.31600
H975        H  0.45521485  0.82282804  0.50043326     0.37500
H976        H  0.39264612  0.79928517  0.37449914     0.31900
H977        H  0.42330672  0.82945481  0.37448581     0.30800
H978        H  0.48321168  0.80416639  0.39998716     0.32500
H979        H  0.48912652  0.83132839  0.44689716     0.31500
H980        H  0.37374951  0.84122455  0.40615245     0.35500
H981        H  0.38135488  0.86577334  0.43471898     0.28200
H982        H  0.45408895  0.73696052  0.43257393     0.32400
H983        H  0.49041820  0.79685829  0.47931878     0.35300
H984        H  0.44494373  0.82738406  0.36809044     0.27900
H985        H  0.39561757  0.88045748  0.44378385     0.40800
H986        H  0.37875081  0.78847731  0.50187044     0.30800
H987        H  0.35773495  0.79134407  0.43882171     0.38400
H988        H  0.48832304  0.81210225  0.43512233     0.30300
H989        H  0.41820267  0.78881938  0.50736242     0.30400
H990        H  0.43665061  0.73115885  0.44546164     0.30600
Zr991      Zr  0.28422163  0.97161577  0.42705018     2.17500
O992        O  0.27749578  0.00270492  0.44223912    -0.51700
O993        O  0.30186264  0.98390054  0.39974549    -0.74900
O994        O  0.31635374  0.98275817  0.43715553    -0.81700
O995        O  0.23351807  0.96819502  0.40615254    -0.83500
O996        O  0.33487918  0.95605129  0.43263372    -0.79100
O997        O  0.25899375  0.98809072  0.40857334    -0.90700
O998        O  0.30608601  0.95854818  0.37918097    -0.76700
O999        O  0.30772460  0.94842704  0.41703759    -0.86200
O1000       O  0.27070613  0.95146737  0.40290998    -0.85900
O1001       O  0.29144092  0.95423197  0.45604382    -0.72600
O1002       O  0.25693788  0.95663472  0.44235112    -0.84800
Zr1003     Zr  0.27634370  0.89639077  0.43412246     2.26400
Zr1004     Zr  0.31541956  0.93131071  0.44513153     2.06300
Zr1005     Zr  0.24350260  0.93695029  0.41760794     2.10000
Zr1006     Zr  0.29461682  0.92903105  0.39272718     1.78800
O1007       O  0.21294930  0.94409703  0.43378168    -0.93600
O1008       O  0.32781381  0.92279907  0.38225863    -0.41400
O1009       O  0.26717878  0.91382043  0.40626406    -0.78000
O1010       O  0.30389942  0.91076842  0.42018734    -0.96700
O1011       O  0.28919435  0.91541271  0.45894903    -0.90000
O1012       O  0.25161392  0.91828241  0.44480262    -0.92800
C1013       C  0.30814749  0.97620144  0.38404549     1.00900
C1014       C  0.24226244  0.98368884  0.40213537     1.13800
C1015       C  0.33292938  0.97405500  0.43566221     1.04600
O1016       O  0.34709447  0.91680849  0.43880263    -0.95000
O1017       O  0.32145863  0.90210408  0.46177175    -0.90700
O1018       O  0.30123674  0.87895688  0.45186433    -0.83900
C1019       C  0.31553180  0.88488254  0.46179200     1.11300
O1020       O  0.25318212  0.96422439  0.48875567    -0.97000
Zr1021     Zr  0.26492546  0.93684175  0.46973071     1.88900
O1022       O  0.26332598  0.88199900  0.46155131    -0.73600
O1023       O  0.32847480  0.94563816  0.47420418    -0.52900
O1024       O  0.28467911  0.94151832  0.49801584    -0.97600
O1025       O  0.23177420  0.93564976  0.48140675    -0.54800
O1026       O  0.26398949  0.90466048  0.48527946    -0.74100
C1027       C  0.26241076  0.88715874  0.47908015     0.98200
O1028       O  0.28353568  0.86783025  0.41464737    -0.63000
O1029       O  0.22927649  0.93512147  0.38581795    -0.57800
O1030       O  0.24587677  0.88326405  0.42520699    -0.94400
O1031       O  0.22571217  0.90729336  0.41533212    -0.92900
O1032       O  0.27549085  0.93160391  0.36364625    -0.93200
O1033       O  0.29842979  0.90032105  0.37278763    -0.92000
C1034       C  0.22973107  0.88956398  0.41868650     1.17100
H1035       H  0.26713790  0.95830055  0.39148163     0.33000
H1036       H  0.31352985  0.90108034  0.41680476     0.43800
H1037       H  0.24055082  0.91167880  0.44967495     0.37400
H1038       H  0.29659156  0.96290230  0.46551567     0.33900
H1039       H  0.33548802  0.93220283  0.38950776     0.25600
H1040       H  0.32862267  0.93515332  0.48366007     0.31600
H1041       H  0.29325148  0.92998521  0.49834904     0.37500
H1042       H  0.28143800  0.94192403  0.35613685     0.31900
H1043       H  0.23199595  0.92184861  0.38117728     0.30800
H1044       H  0.21345734  0.95786080  0.43739255     0.32500
H1045       H  0.23013911  0.92236503  0.48593592     0.31500
H1046       H  0.30288057  0.90477075  0.36010130     0.35500
H1047       H  0.29691683  0.86944668  0.41004412     0.28200
H1048       H  0.28449670  0.00220333  0.45453920     0.32400
H1049       H  0.25535809  0.97545196  0.48049779     0.35300
H1050       H  0.21519012  0.93572843  0.38813314     0.27900
H1051       H  0.28441509  0.85718276  0.42390062     0.40800
H1052       H  0.35535439  0.92164436  0.44922618     0.30800
H1053       H  0.33155894  0.91023729  0.38776073     0.38400
H1054       H  0.22369686  0.93652322  0.46981866     0.30300
H1055       H  0.34222866  0.94774465  0.47125026     0.30400
H1056       H  0.26372763  0.00234118  0.44597616     0.30600
Zr1057     Zr  0.42237284  0.90070253  0.31088273     2.17500
O1058       O  0.43049124  0.86934685  0.32423804    -0.51700
O1059       O  0.43995785  0.88275819  0.28625197    -0.74900
O1060       O  0.39457475  0.87993444  0.31023413    -0.81700
O1061       O  0.45696943  0.92901737  0.34535770    -0.83500
O1062       O  0.38354046  0.89328005  0.28391825    -0.79100
O1063       O  0.44279031  0.90038862  0.33950856    -0.90700
O1064       O  0.44071986  0.89991044  0.25884917    -0.76700
O1065       O  0.40890346  0.91136615  0.28127045    -0.86200
O1066       O  0.44497634  0.92220253  0.29717466    -0.85900
O1067       O  0.39100933  0.91537006  0.31869531    -0.72600
O1068       O  0.42459968  0.92712005  0.33253664    -0.84800
Zr1069     Zr  0.40206537  0.97497771  0.30130514     2.26400
Zr1070     Zr  0.37889884  0.92739467  0.28878358     2.06300
Zr1071     Zr  0.44696092  0.94896604  0.31909386     2.10000
Zr1072     Zr  0.43066176  0.93324859  0.26819686     1.78800
O1073       O  0.47379805  0.95864959  0.33914515    -0.93600
O1074       O  0.41168398  0.92659160  0.23971799    -0.41400
O1075       O  0.43249665  0.96044246  0.29039539    -0.78000
O1076       O  0.40093743  0.95021775  0.27644283    -0.96700
O1077       O  0.38045197  0.95170438  0.31294509    -0.90000
O1078       O  0.41634382  0.96174284  0.32962157    -0.92800
C1079       C  0.44372867  0.88432113  0.26833991     1.00900
C1080       C  0.45328805  0.91167678  0.34960608     1.13800
C1081       C  0.38104707  0.88233237  0.29812627     1.04600
O1082       O  0.36354378  0.91851526  0.25878444    -0.95000
O1083       O  0.35964239  0.95327752  0.27526145    -0.90700
O1084       O  0.37233971  0.98212859  0.28340778    -0.83900
C1085       C  0.35930551  0.97171096  0.27558956     1.11300
O1086       O  0.39552746  0.91416875  0.36489227    -0.97000
Zr1087     Zr  0.39403289  0.94014982  0.34179075     1.88900
O1088       O  0.37503071  0.98584366  0.32162049    -0.73600
O1089       O  0.34802812  0.92023659  0.30354328    -0.52900
O1090       O  0.36013147  0.93367709  0.34746416    -0.97600
O1091       O  0.40421661  0.94775985  0.37435817    -0.54800
O1092       O  0.38109081  0.97169151  0.34995119    -0.74100
C1093       C  0.37122657  0.98300980  0.33939259     0.98200
O1094       O  0.40992360  0.00311349  0.28263117    -0.63000
O1095       O  0.47497912  0.94589349  0.29787900    -0.57800
O1096       O  0.41905353  0.99680767  0.32350838    -0.94400
O1097       O  0.44894100  0.98393691  0.32228446    -0.92900
O1098       O  0.46433577  0.93713737  0.25936735    -0.93200
O1099       O  0.43660187  0.95560301  0.24233541    -0.92000
C1100       C  0.43643323  0.99547922  0.32993253     1.17100
H1101       H  0.45723895  0.91571470  0.29495745     0.33000
H1102       H  0.39588530  0.95574880  0.26483521     0.43800
H1103       H  0.41770122  0.96946769  0.34101817     0.37400
H1104       H  0.38179256  0.90721153  0.32470012     0.33900
H1105       H  0.42123530  0.92259231  0.22976492     0.25600
H1106       H  0.34427576  0.93211294  0.31068629     0.31600
H1107       H  0.35965816  0.91981591  0.35035530     0.37500
H1108       H  0.46717977  0.92676157  0.24988146     0.31900
H1109       H  0.47903338  0.95923597  0.29569566     0.30800
H1110       H  0.48176951  0.96704822  0.33109951     0.32500
H1111       H  0.39217848  0.95121485  0.38140961     0.31500
H1112       H  0.42685322  0.96602964  0.24434170     0.35500
H1113       H  0.40283595  0.00158058  0.27046679     0.28200
H1114       H  0.42699352  0.85981354  0.31428759     0.32400
H1115       H  0.39518085  0.90221214  0.35710893     0.35300
H1116       H  0.48529551  0.94011026  0.30580990     0.27900
H1117       H  0.40322576  0.01394737  0.28936730     0.40800
H1118       H  0.37004138  0.92619550  0.24889096     0.30800
H1119       H  0.40480587  0.91467473  0.24270120     0.38400
H1120       H  0.41118842  0.95996411  0.37344506     0.30300
H1121       H  0.33891908  0.91977561  0.29270491     0.30400
H1122       H  0.42107259  0.86752440  0.33476017     0.30600
Zr1123     Zr  0.20357835  0.69381680  0.64338558     2.17500
O1124       O  0.21108815  0.69620145  0.60925356    -0.51700
O1125       O  0.22594351  0.71951987  0.64234680    -0.74900
O1126       O  0.17682506  0.70662480  0.62424956    -0.81700
O1127       O  0.24028714  0.65272740  0.65109806    -0.83500
O1128       O  0.15216846  0.71553770  0.64419998    -0.79100
O1129       O  0.22414536  0.66975422  0.62863820    -0.90700
O1130       O  0.21477178  0.74060302  0.66406059    -0.76700
O1131       O  0.19083239  0.71707004  0.66551075    -0.86200
O1132       O  0.22679902  0.69523068  0.66864909    -0.85900
O1133       O  0.17278678  0.68162590  0.65271510    -0.72600
O1134       O  0.20545357  0.66217314  0.65618741    -0.84800
Zr1135     Zr  0.18356007  0.67385292  0.71452995     2.26400
Zr1136     Zr  0.16094339  0.70470590  0.67577857     2.06300
Zr1137     Zr  0.22756317  0.66396441  0.68203709     2.10000
Zr1138     Zr  0.21343933  0.71805233  0.69096763     1.78800
O1139       O  0.24457207  0.63299392  0.68178511    -0.93600
O1140       O  0.20366307  0.74983010  0.70290554    -0.41400
O1141       O  0.21456791  0.68646284  0.70524782    -0.78000
O1142       O  0.18320555  0.70611905  0.70188027    -0.96700
O1143       O  0.16161097  0.67286502  0.68840174    -0.90000
O1144       O  0.19703492  0.65156251  0.69158207    -0.92800
C1145       C  0.22103401  0.73649866  0.64715188     1.00900
C1146       C  0.23598668  0.65642610  0.63361686     1.13800
C1147       C  0.15965670  0.71329451  0.62745167     1.04600
O1148       O  0.15365878  0.73901307  0.67772898    -0.95000
O1149       O  0.14409258  0.71106486  0.70528661    -0.90700
O1150       O  0.15672269  0.69277469  0.72913033    -0.83900
C1151       C  0.14477235  0.70553133  0.72267724     1.11300
O1152       O  0.17472693  0.63842320  0.63288170    -0.97000
Zr1153     Zr  0.17520289  0.65030872  0.66585639     1.88900
O1154       O  0.15990896  0.64816360  0.71846049    -0.73600
O1155       O  0.12757474  0.69659630  0.66952387    -0.52900
O1156       O  0.14329597  0.64506037  0.65282757    -0.97600
O1157       O  0.19062321  0.61863691  0.66252568    -0.54800
O1158       O  0.15843033  0.63242866  0.68980806    -0.74100
C1159       C  0.15388349  0.63454445  0.70751971     0.98200
O1160       O  0.18846513  0.67826017  0.74886683    -0.63000
O1161       O  0.25885184  0.67768142  0.68855578    -0.57800
O1162       O  0.20486856  0.64985029  0.72965620    -0.94400
O1163       O  0.23222161  0.64731965  0.71166452    -0.92900
O1164       O  0.24828882  0.72104462  0.69213489    -0.93200
O1165       O  0.22030272  0.72834834  0.72364637    -0.92000
C1166       C  0.22164494  0.64238651  0.72576468     1.17100
H1167       H  0.23961056  0.69825904  0.66431974     0.33000
H1168       H  0.17894553  0.71528011  0.71156993     0.43800
H1169       H  0.19833067  0.63872656  0.69654059     0.37400
H1170       H  0.16405453  0.68022640  0.64213534     0.33900
H1171       H  0.21420291  0.75835512  0.69901575     0.25600
H1172       H  0.12557701  0.68446641  0.67643890     0.31600
H1173       H  0.13500324  0.65521955  0.65880016     0.37500
H1174       H  0.25104127  0.73206329  0.68378173     0.31900
H1175       H  0.26452078  0.66941473  0.69859043     0.30800
H1176       H  0.25831891  0.63602254  0.68352512     0.32500
H1177       H  0.18740251  0.61177553  0.67443863     0.31500
H1178       H  0.21381966  0.71888642  0.73183260     0.35500
H1179       H  0.18690000  0.69223809  0.75130306     0.28200
H1180       H  0.20861835  0.70975847  0.60576988     0.32400
H1181       H  0.17514829  0.65005838  0.62488027     0.35300
H1182       H  0.26664121  0.67465092  0.67691870     0.27900
H1183       H  0.17710661  0.67249627  0.75503751     0.40800
H1184       H  0.13980613  0.74020904  0.67459063     0.30800
H1185       H  0.19265148  0.75371766  0.69478329     0.38400
H1186       H  0.20459934  0.62098933  0.66344808     0.30300
H1187       H  0.11971439  0.70628588  0.67675402     0.30400
H1188       H  0.20116479  0.68882078  0.60243331     0.30600
Zr1189     Zr  0.20617734  0.56072163  0.55917880     2.17500
O1190       O  0.23545638  0.54587128  0.54586487    -0.51700
O1191       O  0.22038317  0.58466353  0.57928542    -0.74900
O1192       O  0.21937224  0.58919625  0.54234127    -0.81700
O1193       O  0.19573491  0.52744737  0.60206929    -0.83500
O1194       O  0.19889295  0.59637931  0.51822678    -0.79100
O1195       O  0.21922143  0.54582130  0.58926821    -0.90700
O1196       O  0.19510129  0.60408408  0.58862837    -0.76700
O1197       O  0.18543682  0.58793575  0.55558938    -0.86200
O1198       O  0.18409164  0.56167218  0.58546506    -0.85900
O1199       O  0.18954879  0.55567681  0.52892750    -0.72600
O1200       O  0.18825974  0.53134898  0.55543650    -0.84800
Zr1201     Zr  0.12981701  0.55562862  0.55276586     2.26400
Zr1202     Zr  0.16862387  0.58315934  0.52662974     2.06300
Zr1203     Zr  0.16764399  0.53219134  0.58309826     2.10000
Zr1204     Zr  0.16429482  0.58928927  0.58222469     1.78800
O1205       O  0.17864622  0.49874900  0.58270637    -0.93600
O1206       O  0.15791394  0.62250404  0.57317668    -0.41400
O1207       O  0.14664183  0.55991896  0.58225548    -0.78000
O1208       O  0.14667987  0.58532816  0.55330286    -0.96700
O1209       O  0.14956496  0.55542968  0.52461807    -0.90000
O1210       O  0.15071118  0.52804253  0.55419466    -0.92800
C1211       C  0.21316619  0.59978799  0.58730776     1.00900
C1212       C  0.21232298  0.53490781  0.60255320     1.13800
C1213       C  0.21407315  0.59949323  0.52785745     1.04600
O1214       O  0.16064219  0.61736070  0.52816954    -0.95000
O1215       O  0.13981866  0.58566812  0.50849153    -0.90700
O1216       O  0.11548042  0.57201872  0.52509500    -0.83900
C1217       C  0.12213419  0.58170024  0.51089998     1.11300
O1218       O  0.19504540  0.50581900  0.51545450    -0.97000
Zr1219     Zr  0.16932816  0.52785251  0.52602023     1.88900
O1220       O  0.11841657  0.52767543  0.53762096    -0.73600
O1221       O  0.17761969  0.58475128  0.49285920    -0.52900
O1222       O  0.17792297  0.53283940  0.49257772    -0.97600
O1223       O  0.16348475  0.49347789  0.52750625    -0.54800
O1224       O  0.13599463  0.52597628  0.51099667    -0.74100
C1225       C  0.11936394  0.52598023  0.51968202     0.98200
O1226       O  0.10007871  0.57067938  0.56482456    -0.63000
O1227       O  0.15678991  0.53240612  0.61640701    -0.57800
O1228       O  0.11428885  0.53111622  0.57186216    -0.94400
O1229       O  0.13819773  0.51553762  0.58790639    -0.92900
O1230       O  0.16835954  0.59099012  0.61685273    -0.93200
O1231       O  0.13590308  0.60128320  0.59967177    -0.92000
C1232       C  0.12076399  0.51732510  0.58233482     1.17100
H1233       H  0.19006047  0.56342103  0.59776604     0.33000
H1234       H  0.13766594  0.59593925  0.55171520     0.43800
H1235       H  0.14464249  0.51573762  0.55426058     0.37400
H1236       H  0.19880585  0.55560928  0.51851497     0.33900
H1237       H  0.15687072  0.62971060  0.58547004     0.25600
H1238       H  0.17088620  0.57399816  0.48662085     0.31600
H1239       H  0.17073511  0.52296802  0.48543928     0.37500
H1240       H  0.16335725  0.57870975  0.62160689     0.31900
H1241       H  0.16032408  0.51948018  0.62118757     0.30800
H1242       H  0.16707871  0.49126604  0.57967295     0.32500
H1243       H  0.14983774  0.49205345  0.52385975     0.31500
H1244       H  0.12556031  0.59240687  0.59606242     0.35500
H1245       H  0.09989831  0.56781809  0.57869583     0.28200
H1246       H  0.23084238  0.53537757  0.53750564     0.32400
H1247       H  0.20700429  0.51195161  0.51979652     0.35300
H1248       H  0.16556802  0.54117461  0.62315678     0.27900
H1249       H  0.10240497  0.58463304  0.56425658     0.40800
H1250       H  0.17290933  0.62359328  0.53135463     0.30800
H1251       H  0.17017785  0.62675913  0.56747050     0.38400
H1252       H  0.16388383  0.49024917  0.54128003     0.30300
H1253       H  0.17104162  0.59648590  0.48807635     0.30400
H1254       H  0.24156586  0.53922364  0.55679076     0.30600
Zr1255     Zr  0.05522112  0.70832576  0.55400884     2.17500
O1256       O  0.04483474  0.74178799  0.55115784    -0.51700
O1257       O  0.08360768  0.71162425  0.57380700    -0.74900
O1258       O  0.04398325  0.71602543  0.58706645    -0.81700
O1259       O  0.09147550  0.70525892  0.51295159    -0.83500
O1260       O  0.02195933  0.69375151  0.59526606    -0.79100
O1261       O  0.08384450  0.72305035  0.53959220    -0.90700
O1262       O  0.09640664  0.68144314  0.57647020    -0.76700
O1263       O  0.05188227  0.68087447  0.57361652    -0.86200
O1264       O  0.07740220  0.68462540  0.54157215    -0.85900
O1265       O  0.02204678  0.69858594  0.54983028    -0.72600
O1266       O  0.04521311  0.70237152  0.52111044    -0.84800
Zr1267     Zr  0.03559396  0.64075538  0.52641047     2.26400
Zr1268     Zr  0.01947041  0.67078177  0.56938317     2.06300
Zr1269     Zr  0.06851109  0.67944444  0.50904134     2.10000
Zr1270     Zr  0.07514551  0.65810656  0.56200474     1.78800
O1271       O  0.05496658  0.69381221  0.48032684    -0.93600
O1272       O  0.07331778  0.64912333  0.59563091    -0.41400
O1273       O  0.06784813  0.65168250  0.52908878    -0.78000
O1274       O  0.04304679  0.64712266  0.55926607    -0.96700
O1275       O  0.01093259  0.66243348  0.53753356    -0.90000
O1276       O  0.03706114  0.66758957  0.50564861    -0.92800
C1277       C  0.09683330  0.69972268  0.57911993     1.00900
C1278       C  0.09492612  0.71865862  0.52518679     1.13800
C1279       C  0.03197982  0.70852826  0.59894015     1.04600
O1280       O  0.01400409  0.65791525  0.60121359    -0.95000
O1281       O  0.00443889  0.63981451  0.57061999    -0.90700
O1282       O  0.01204484  0.62245165  0.54373088    -0.83900
C1283       C  0.00372320  0.62458951  0.56013200     1.11300
O1284       O  0.00608473  0.72166008  0.50589769    -0.97000
Zr1285     Zr  0.01299652  0.68938606  0.51746802     1.88900
O1286       O  0.01302299  0.63858443  0.50105664    -0.73600
O1287       O  0.98641737  0.68320587  0.56959632    -0.52900
O1288       O  0.98240014  0.70182688  0.53024101    -0.97600
O1289       O  0.00801085  0.69268007  0.48302571    -0.54800
O1290       O  0.99162093  0.66216246  0.50865968    -0.74100
C1291       C  0.99590275  0.64520003  0.50194641     0.98200
O1292       O  0.04542034  0.60711482  0.52994773    -0.63000
O1293       O  0.09557639  0.67652076  0.48659136    -0.57800
O1294       O  0.05196495  0.62811458  0.49858895    -0.94400
O1295       O  0.07691790  0.64815041  0.49511880    -0.92900
O1296       O  0.10865448  0.64965353  0.55481734    -0.93200
O1297       O  0.08158056  0.62357944  0.56260785    -0.92000
C1298       C  0.06868609  0.63200469  0.49224962     1.17100
H1299       H  0.09076479  0.68791096  0.54232331     0.33000
H1300       H  0.04189574  0.63560494  0.56673223     0.43800
H1301       H  0.03506814  0.66398318  0.49242460     0.37400
H1302       H  0.01344176  0.70865457  0.55460631     0.33900
H1303       H  0.08465823  0.64053533  0.59760833     0.25600
H1304       H  0.97841749  0.67165992  0.57060575     0.31600
H1305       H  0.97448137  0.69033081  0.53205208     0.37500
H1306       H  0.10978531  0.65089518  0.54072850     0.31900
H1307       H  0.09567352  0.68872178  0.47945028     0.30800
H1308       H  0.05847279  0.70749208  0.48119434     0.32500
H1309       H  0.99396346  0.69500535  0.48171921     0.31500
H1310       H  0.08518244  0.61999260  0.54925828     0.35500
H1311       H  0.05955900  0.60687927  0.52802394     0.28200
H1312       H  0.03580852  0.74179622  0.54023844     0.32400
H1313       H  0.00602341  0.72993291  0.51753569     0.35300
H1314       H  0.10732018  0.67667379  0.49455422     0.27900
H1315       H  0.04386458  0.60433952  0.54375330     0.40800
H1316       H  0.02691758  0.65351237  0.60546490     0.30800
H1317       H  0.07629842  0.66097849  0.60288370     0.38400
H1318       H  0.01016580  0.67970530  0.47739376     0.30300
H1319       H  0.98481369  0.68979416  0.58217540     0.30400
H1320       H  0.05624720  0.74855549  0.54632375     0.30600
Zr1321     Zr  0.05454513  0.55434393  0.70191562     2.17500
O1322       O  0.04217572  0.54570147  0.73334920    -0.51700
O1323       O  0.08042901  0.57626929  0.71105077    -0.74900
O1324       O  0.08103628  0.53669371  0.71783366    -0.81700
O1325       O  0.01671090  0.59290415  0.69128307    -0.83500
O1326       O  0.09011030  0.51201772  0.69788437    -0.79100
O1327       O  0.03656789  0.58242066  0.71495014    -0.90700
O1328       O  0.09726517  0.58144371  0.68355545    -0.76700
O1329       O  0.07969023  0.54497024  0.68032904    -0.86200
O1330       O  0.05461939  0.57774604  0.67722164    -0.85900
O1331       O  0.04614372  0.52266494  0.69003259    -0.72600
O1332       O  0.02352112  0.55197899  0.68627568    -0.84800
Zr1333     Zr  0.04391845  0.53730376  0.62898434     2.26400
Zr1334     Zr  0.07199504  0.51378996  0.66864518     2.06300
Zr1335     Zr  0.02398070  0.57587677  0.66191688     2.10000
Zr1336     Zr  0.08052691  0.56867773  0.65626351     1.78800
O1337       O  0.98964002  0.58234859  0.66653651    -0.93600
O1338       O  0.11437173  0.55974815  0.65162469    -0.41400
O1339       O  0.05016169  0.56887438  0.64045445    -0.78000
O1340       O  0.07459551  0.53724741  0.64398856    -0.96700
O1341       O  0.04236229  0.51255168  0.65198958    -0.90000
O1342       O  0.01712198  0.54519827  0.64908414    -0.92800
C1343       C  0.09473360  0.58317933  0.70169530     1.00900
C1344       C  0.02346999  0.59387961  0.70826637     1.13800
C1345       C  0.09181571  0.52196642  0.71330903     1.04600
O1346       O  0.10545390  0.50526127  0.66132474    -0.95000
O1347       O  0.07519668  0.49365688  0.64020787    -0.90700
O1348       O  0.05887165  0.50857032  0.61634919    -0.83900
C1349       C  0.06993077  0.49516219  0.62266988     1.11300
O1350       O  0.00101784  0.51198752  0.70235977    -0.97000
Zr1351     Zr  0.01624017  0.52094478  0.67230349     1.88900
O1352       O  0.01974521  0.51749391  0.61694828    -0.73600
O1353       O  0.06604009  0.48205866  0.68140375    -0.52900
O1354       O  0.02047741  0.48656699  0.67706025    -0.97600
O1355       O  0.98197643  0.52843958  0.67604070    -0.54800
O1356       O  0.00091796  0.50881101  0.64211185    -0.74100
C1357       C  0.00513203  0.50939886  0.62396722     0.98200
O1358       O  0.05923174  0.54518627  0.59858877    -0.63000
O1359       O  0.02930557  0.60908426  0.65301987    -0.57800
O1360       O  0.02255790  0.55700004  0.61022385    -0.94400
O1361       O  0.00976064  0.57978313  0.63035890    -0.92900
O1362       O  0.08163010  0.60309858  0.65074921    -0.93200
O1363       O  0.09168501  0.57400079  0.62357691    -0.92000
C1364       C  0.01149213  0.57155524  0.61380965     1.17100
H1365       H  0.05655825  0.59046175  0.68242856     0.33000
H1366       H  0.08456835  0.53348055  0.63488429     0.43800
H1367       H  0.00513439  0.54558316  0.64217492     0.37400
H1368       H  0.04583937  0.51380346  0.70057986     0.33900
H1369       H  0.12109904  0.57211204  0.65086697     0.25600
H1370       H  0.05824643  0.47565126  0.67148441     0.31600
H1371       H  0.00844522  0.48095308  0.67223402     0.37500
H1372       H  0.07268715  0.60542137  0.63999286     0.31900
H1373       H  0.01939919  0.61665757  0.66026857     0.30800
H1374       H  0.98320260  0.57255323  0.65860810     0.32500
H1375       H  0.97546705  0.51653194  0.67209638     0.31500
H1376       H  0.07982015  0.57597754  0.61600829     0.35500
H1377       H  0.07279888  0.54072700  0.59980038     0.28200
H1378       H  0.04560145  0.53190956  0.73465044     0.32400
H1379       H  0.00712919  0.52018883  0.71216623     0.35300
H1380       H  0.04160812  0.61247673  0.65912035     0.27900
H1381       H  0.05361728  0.53630323  0.58907060     0.40800
H1382       H  0.11066382  0.51675490  0.65507888     0.30800
H1383       H  0.11846895  0.55425399  0.66400934     0.38400
H1384       H  0.97898017  0.53762955  0.66571437     0.30300
H1385       H  0.07872994  0.47531979  0.68064950     0.30400
H1386       H  0.02800555  0.54596719  0.73185622     0.30600
Zr1387     Zr  0.22334055  0.72498513  0.53070210     2.17500
O1388       O  0.21248145  0.70299125  0.55537669    -0.51700
O1389       O  0.18782181  0.72775214  0.52777019    -0.74900
O1390       O  0.22124794  0.73997375  0.56266341    -0.81700
O1391       O  0.23732895  0.68366957  0.49633094    -0.83500
O1392       O  0.23440040  0.76957200  0.56277863    -0.79100
O1393       O  0.22779899  0.68991936  0.52708404    -0.90700
O1394       O  0.18036228  0.74783681  0.50344422    -0.76700
O1395       O  0.21717488  0.75784997  0.52332566    -0.86200
O1396       O  0.21605170  0.72552633  0.49730810    -0.85900
O1397       O  0.25270525  0.74135406  0.53861051    -0.72600
O1398       O  0.25192450  0.71303494  0.51427009    -0.84800
Zr1399     Zr  0.26727342  0.76375289  0.48066347     2.26400
Zr1400     Zr  0.24635556  0.77421917  0.53059410     2.06300
Zr1401     Zr  0.24451315  0.71394412  0.48088624     2.10000
Zr1402     Zr  0.21033925  0.75840201  0.48987484     1.78800
O1403       O  0.26838136  0.69058244  0.46879540    -0.93600
O1404       O  0.19125424  0.78724127  0.49783602    -0.41400
O1405       O  0.23838567  0.74684015  0.47296092    -0.78000
O1406       O  0.23864833  0.77578746  0.49711370    -0.96700
O1407       O  0.27492022  0.76304894  0.51393647    -0.90000
O1408       O  0.27340719  0.73073270  0.48785549    -0.92800
C1409       C  0.17557355  0.73673109  0.51708687     1.00900
C1410       C  0.23214178  0.67826775  0.51313384     1.13800
C1411       C  0.22599520  0.75570947  0.57103555     1.04600
O1412       O  0.22483715  0.80084030  0.53989152    -0.95000
O1413       O  0.25708581  0.80458754  0.51875103    -0.90700
O1414       O  0.26766195  0.79869614  0.48821155    -0.83900
C1415       C  0.26333079  0.81006042  0.50245344     1.11300
O1416       O  0.28561068  0.71230294  0.55059305    -0.97000
Zr1417     Zr  0.28076718  0.73015722  0.52113221     1.88900
O1418       O  0.30225215  0.75746085  0.48040182    -0.73600
O1419       O  0.27124691  0.78346611  0.55311483    -0.52900
O1420       O  0.30047011  0.74850357  0.54315935    -0.97600
O1421       O  0.29716604  0.69919337  0.51619573    -0.54800
O1422       O  0.31039144  0.73669471  0.50391364    -0.74100
C1423       C  0.31464609  0.74704066  0.48946218     0.98200
O1424       O  0.27731923  0.78379965  0.45403019    -0.63000
O1425       O  0.21891578  0.69978765  0.46207606    -0.57800
O1426       O  0.26512362  0.75113395  0.44769832    -0.94400
O1427       O  0.25189008  0.72149247  0.44760169    -0.92900
O1428       O  0.19523319  0.74338198  0.46229681    -0.93200
O1429       O  0.20634481  0.78139943  0.46408525    -0.92000
C1430       C  0.25938153  0.73582993  0.43909244     1.17100
H1431       H  0.20516800  0.71766592  0.49428469     0.33000
H1432       H  0.23528456  0.78872415  0.49347411     0.43800
H1433       H  0.28375584  0.72528843  0.48007641     0.37400
H1434       H  0.25573697  0.74008574  0.55202216     0.33900
H1435       H  0.18619032  0.78505620  0.51091701     0.25600
H1436       H  0.27442920  0.77162526  0.56024619     0.31600
H1437       H  0.31225978  0.74049494  0.54492862     0.37500
H1438       H  0.18126827  0.74601213  0.46410203     0.31900
H1439       H  0.21500365  0.70987142  0.45292093     0.30800
H1440       H  0.26133937  0.67846923  0.46719842     0.32500
H1441       H  0.30255633  0.69962597  0.50303129     0.31500
H1442       H  0.21962449  0.78393413  0.45966489     0.35500
H1443       H  0.26689762  0.79354241  0.45230513     0.28200
H1444       H  0.20096811  0.70923817  0.56140464     0.32400
H1445       H  0.27376576  0.70477749  0.55207129     0.35300
H1446       H  0.22551292  0.68980779  0.45404874     0.27900
H1447       H  0.28852075  0.79103722  0.45867149     0.40800
H1448       H  0.21217938  0.79493563  0.54208143     0.30800
H1449       H  0.20076286  0.79749312  0.49957589     0.38400
H1450       H  0.28666452  0.68984416  0.51529617     0.30300
H1451       H  0.28278607  0.78577312  0.54511995     0.30400
H1452       H  0.22246950  0.70312386  0.56543659     0.30600
Zr1453     Zr  0.21405334  0.52220083  0.72962270     2.17500
O1454       O  0.18974926  0.54547285  0.71881758    -0.51700
O1455       O  0.21794174  0.52367274  0.69416900    -0.74900
O1456       O  0.22410272  0.55506595  0.73382267    -0.81700
O1457       O  0.17404001  0.48696706  0.74307033    -0.83500
O1458       O  0.25521375  0.55616087  0.74364805    -0.79100
O1459       O  0.17957265  0.51740910  0.73343605    -0.90700
O1460       O  0.23836792  0.49993862  0.68401618    -0.76700
O1461       O  0.24665932  0.51577196  0.72063328    -0.86200
O1462       O  0.21484057  0.48910394  0.72068457    -0.85900
O1463       O  0.23234636  0.52860920  0.75838772    -0.72600
O1464       O  0.20405661  0.50494324  0.75771108    -0.84800
Zr1465     Zr  0.25782590  0.47215387  0.76762750     2.26400
Zr1466     Zr  0.26534617  0.52245832  0.74880977     2.06300
Zr1467     Zr  0.20567028  0.47174767  0.74888758     2.10000
Zr1468     Zr  0.24755836  0.48247483  0.71217189     1.78800
O1469       O  0.18498693  0.45983061  0.77422745    -0.93600
O1470       O  0.27803489  0.48901151  0.69616544    -0.41400
O1471       O  0.23848149  0.46514763  0.74004294    -0.78000
O1472       O  0.26710893  0.48916999  0.73912144    -0.96700
O1473       O  0.25600740  0.50505829  0.77682128    -0.90000
O1474       O  0.22496482  0.47761187  0.77691142    -0.92800
C1475       C  0.22743992  0.51450212  0.68080261     1.00900
C1476       C  0.16822034  0.50381948  0.73790365     1.13800
C1477       C  0.23904715  0.56424589  0.73897446     1.04600
O1478       O  0.28550900  0.53610350  0.72396809    -0.95000
O1479       O  0.29760366  0.50756845  0.75400094    -0.90700
O1480       O  0.29232303  0.47696033  0.76330975    -0.83900
C1481       C  0.30364296  0.49054823  0.75860029     1.11300
O1482       O  0.19736958  0.53416902  0.79217361    -0.97000
Zr1483     Zr  0.22314449  0.51067295  0.78572361     1.88900
O1484       O  0.26119336  0.47702413  0.80251624    -0.73600
O1485       O  0.28028988  0.54101815  0.77427576    -0.52900
O1486       O  0.23301623  0.53963340  0.80252170    -0.97600
O1487       O  0.19791518  0.49770823  0.80597623    -0.54800
O1488       O  0.24121465  0.50063913  0.81375138    -0.74100
C1489       C  0.25460949  0.48798468  0.81618798     0.98200
O1490       O  0.27599716  0.44465197  0.78020037    -0.63000
O1491       O  0.19010003  0.45188092  0.72478238    -0.57800
O1492       O  0.24729441  0.43935514  0.76175515    -0.94400
O1493       O  0.21556375  0.43831876  0.75398654    -0.92900
O1494       O  0.23161944  0.45929451  0.69163819    -0.93200
O1495       O  0.26678053  0.45333335  0.70612696    -0.92000
C1496       C  0.23188233  0.43022343  0.75777603     1.17100
H1497       H  0.20633642  0.48675601  0.71006110     0.33000
H1498       H  0.27946851  0.48536876  0.73384148     0.43800
H1499       H  0.22149224  0.46937362  0.78737283     0.37400
H1500       H  0.23030406  0.54133797  0.76362096     0.33900
H1501       H  0.27497770  0.48976325  0.68235346     0.25600
H1502       H  0.28527126  0.53136217  0.78340142     0.31600
H1503       H  0.24722635  0.53951937  0.80124672     0.37500
H1504       H  0.23806425  0.46035421  0.67899257     0.31900
H1505       H  0.18478640  0.46093331  0.71524527     0.30800
H1506       H  0.17729538  0.44981190  0.76789002     0.32500
H1507       H  0.20411405  0.48697847  0.81297156     0.31500
H1508       H  0.26282466  0.44434915  0.71625242     0.35500
H1509       H  0.28783107  0.44987987  0.78588309     0.28200
H1510       H  0.19616029  0.55323674  0.70893024     0.32400
H1511       H  0.19236584  0.53756083  0.77936662     0.35300
H1512       H  0.20083280  0.44508541  0.71796201     0.27900
H1513       H  0.26850370  0.44035222  0.79144774     0.40800
H1514       H  0.29533540  0.54337151  0.73104783     0.30800
H1515       H  0.28097344  0.50235768  0.69998266     0.38400
H1516       H  0.18901639  0.49146957  0.79693791     0.30300
H1517       H  0.29196127  0.54633913  0.76828845     0.30400
H1518       H  0.18737559  0.55446651  0.72972262     0.30600
Zr1519     Zr  0.55481272  0.52529997  0.18364322     2.17500
O1520       O  0.54735635  0.49250191  0.19231990    -0.51700
O1521       O  0.58398727  0.51957448  0.16377445    -0.74900
O1522       O  0.54268534  0.50905278  0.15444972    -0.81700
O1523       O  0.58175881  0.53617300  0.23048575    -0.83500
O1524       O  0.51929718  0.52867049  0.14216431    -0.79100
O1525       O  0.57925779  0.51378691  0.20668244    -0.90700
O1526       O  0.59613080  0.54904628  0.15816243    -0.76700
O1527       O  0.55153627  0.54822464  0.15871337    -0.86200
O1528       O  0.57492034  0.55121445  0.19234998    -0.85900
O1529       O  0.52127001  0.53581588  0.18397549    -0.72600
O1530       O  0.54247620  0.53783367  0.21403675    -0.84800
Zr1531     Zr  0.52747391  0.59690385  0.19514626     2.26400
Zr1532     Zr  0.51844318  0.55902204  0.15884054     2.06300
Zr1533     Zr  0.56268478  0.56405259  0.22195563     2.10000
Zr1534     Zr  0.57253441  0.57335733  0.16700981     1.78800
O1535       O  0.55223487  0.56007189  0.25505490    -0.93600
O1536       O  0.56991525  0.57283696  0.13213828    -0.41400
O1537       O  0.56067814  0.58665396  0.19651328    -0.78000
O1538       O  0.54017734  0.58452438  0.16526402    -0.96700
O1539       O  0.50610085  0.57166421  0.18838760    -0.90000
O1540       O  0.53020086  0.57542669  0.22162143    -0.92800
C1541       C  0.59695753  0.53071230  0.15707835     1.00900
C1542       C  0.58674574  0.52023040  0.22237088     1.13800
C1543       C  0.52946134  0.51315090  0.14210033     1.04600
O1544       O  0.51707609  0.56134370  0.12406457    -0.95000
O1545       O  0.50634861  0.58959061  0.14591166    -0.90700
O1546       O  0.51520997  0.61273148  0.16696209    -0.83900
C1547       C  0.50815338  0.60732750  0.15088327     1.11300
O1548       O  0.49761581  0.51721334  0.21875949    -0.97000
Zr1549     Zr  0.50945734  0.54950878  0.21411412     1.88900
O1550       O  0.49451191  0.59324428  0.20500042    -0.73600
O1551       O  0.48448129  0.55108372  0.15984601    -0.52900
O1552       O  0.47602702  0.54669171  0.20441501    -0.97600
O1553       O  0.51062723  0.53968706  0.24752503    -0.54800
O1554       O  0.49362994  0.57667626  0.23148121    -0.74100
C1555       C  0.49020665  0.59232785  0.22260837     0.98200
O1556       O  0.52045495  0.63089921  0.20144891    -0.63000
O1557       O  0.59573377  0.56880519  0.23234684    -0.57800
O1558       O  0.54603348  0.61643766  0.21674089    -0.94400
O1559       O  0.56855932  0.59714775  0.23061796    -0.92900
O1560       O  0.60414713  0.58590722  0.17420468    -0.93200
O1561       O  0.58085581  0.60598274  0.15826977    -0.92000
C1562       C  0.56144076  0.61370278  0.22645742     1.17100
H1563       H  0.58820046  0.54717031  0.19387351     0.33000
H1564       H  0.54081544  0.59352229  0.15492074     0.43800
H1565       H  0.52738385  0.58187767  0.23367651     0.37400
H1566       H  0.51341761  0.52495896  0.18082441     0.33900
H1567       H  0.57126013  0.58630558  0.12807087     0.25600
H1568       H  0.47758309  0.56359275  0.16144193     0.31600
H1569       H  0.46860308  0.54692928  0.21659305     0.37500
H1570       H  0.60622991  0.58280114  0.18785418     0.31900
H1571       H  0.60074888  0.57923148  0.22430691     0.30800
H1572       H  0.55090537  0.57329977  0.26030668     0.32500
H1573       H  0.49707554  0.53725735  0.25109341     0.31500
H1574       H  0.56846878  0.61273389  0.15573033     0.35500
H1575       H  0.52724413  0.63794346  0.19125438     0.28200
H1576       H  0.55629193  0.48436150  0.18445286     0.32400
H1577       H  0.50940640  0.50899705  0.21937769     0.35300
H1578       H  0.59470163  0.57436089  0.24545102     0.27900
H1579       H  0.50661370  0.63278161  0.19856537     0.40800
H1580       H  0.53026349  0.55786871  0.11955259     0.30800
H1581       H  0.58182642  0.56622323  0.12744163     0.38400
H1582       H  0.51375552  0.55150777  0.25475839     0.30300
H1583       H  0.48154043  0.54693379  0.14658391     0.30400
H1584       H  0.53447260  0.49024435  0.18685499     0.30600
Zr1585     Zr  0.67795403  0.52921069  0.05876163     2.17500
O1586       O  0.68394245  0.49614509  0.04830159    -0.51700
O1587       O  0.65755346  0.52350492  0.08675592    -0.74900
O1588       O  0.69652987  0.51469695  0.08489029    -0.81700
O1589       O  0.63534895  0.54201128  0.02664114    -0.83500
O1590       O  0.72251279  0.53326656  0.09035638    -0.79100
O1591       O  0.64682294  0.51840870  0.04613578    -0.90700
O1592       O  0.65790705  0.55144999  0.10384308    -0.76700
O1593       O  0.69037002  0.55158824  0.08119042    -0.86200
O1594       O  0.65596436  0.55583855  0.05973034    -0.85900
O1595       O  0.70948844  0.53779142  0.04663770    -0.72600
O1596       O  0.67837681  0.54197560  0.02663748    -0.84800
Zr1597     Zr  0.69865399  0.59969261  0.04121124     2.26400
Zr1598     Zr  0.72129541  0.56056639  0.06958742     2.06300
Zr1599     Zr  0.65645763  0.56889404  0.02825950     2.10000
Zr1600     Zr  0.66774360  0.57732851  0.08319162     1.78800
O1601       O  0.64870859  0.56083870  0.99518813    -0.93600
O1602       O  0.68122324  0.58560427  0.11432135    -0.41400
O1603       O  0.66716987  0.59130829  0.05201863    -0.78000
O1604       O  0.69876060  0.58715678  0.07300683    -0.96700
O1605       O  0.72145441  0.57385790  0.03846005    -0.90000
O1606       O  0.68711015  0.57845253  0.01701600    -0.92800
C1607       C  0.65372620  0.53368972  0.10185245     1.00900
C1608       C  0.63410349  0.52570617  0.03476332     1.13800
C1609       C  0.71184798  0.51903386  0.09418406     1.04600
O1610       O  0.73737198  0.56497814  0.10014623    -0.95000
O1611       O  0.74038010  0.58936093  0.07359594    -0.90700
O1612       O  0.72301174  0.61379656  0.06056472    -0.83900
C1613       C  0.73708757  0.60727934  0.07049701     1.11300
O1614       O  0.71717176  0.51976739  0.00366374    -0.97000
Zr1615     Zr  0.70942786  0.55220598  0.01505293     1.88900
O1616       O  0.72707935  0.59512713  0.02209313    -0.73600
O1617       O  0.75083374  0.54570896  0.05686120    -0.52900
O1618       O  0.74402624  0.54606988  0.01256247    -0.97600
O1619       O  0.69654997  0.54462714  0.98354540    -0.54800
O1620       O  0.71919250  0.58020136  0.99562727    -0.74100
C1621       C  0.72553415  0.59517390  0.00412179     0.98200
O1622       O  0.69875762  0.63467503  0.03939106    -0.63000
O1623       O  0.62446454  0.58225107  0.03549391    -0.57800
O1624       O  0.67731364  0.61819510  0.02072144    -0.94400
O1625       O  0.65289513  0.59899167  0.01172540    -0.92900
O1626       O  0.63308190  0.58262069  0.08672281    -0.93200
O1627       O  0.65930673  0.61012558  0.09307959    -0.92000
C1628       C  0.66179290  0.61491590  0.01143368     1.17100
H1629       H  0.64315983  0.55202194  0.06332964     0.33000
H1630       H  0.70299910  0.59628956  0.08251485     0.43800
H1631       H  0.68581504  0.58449200  0.00469737     0.37400
H1632       H  0.71780800  0.52649398  0.04641524     0.33900
H1633       H  0.66993521  0.58846911  0.12271327     0.25600
H1634       H  0.75869401  0.55663371  0.05273844     0.31600
H1635       H  0.74927521  0.55767039  0.00655505     0.37500
H1636       H  0.62959614  0.57652649  0.09898480     0.31900
H1637       H  0.62024588  0.57550223  0.04715725     0.30800
H1638       H  0.63558934  0.56631298  0.99331540     0.32500
H1639       H  0.70741568  0.54659673  0.97455751     0.31500
H1640       H  0.65531821  0.61661883  0.08115155     0.35500
H1641       H  0.69703975  0.63945014  0.05273552     0.28200
H1642       H  0.67649344  0.48839037  0.05743854     0.32400
H1643       H  0.70673368  0.51186965  0.00893044     0.35300
H1644       H  0.62667053  0.59557012  0.03993384     0.27900
H1645       H  0.71206691  0.63805644  0.03576902     0.40800
H1646       H  0.72829328  0.57313391  0.10784545     0.30800
H1647       H  0.68664801  0.57336679  0.11922446     0.38400
H1648       H  0.68734865  0.55528870  0.98085647     0.30300
H1649       H  0.75754771  0.54063816  0.06826841     0.30400
H1650       H  0.69758260  0.49342600  0.05153065     0.30600
Zr1651     Zr  0.52420237  0.69205041  0.05630988     2.17500
O1652       O  0.49234963  0.70215613  0.04546528    -0.51700
O1653       O  0.51432732  0.67016261  0.08118025    -0.74900
O1654       O  0.51272557  0.66113700  0.04176750    -0.81700
O1655       O  0.53259438  0.73214453  0.09447482    -0.83500
O1656       O  0.53417573  0.65090757  0.01878000    -0.79100
O1657       O  0.51093597  0.70984642  0.08521908    -0.90700
O1658       O  0.54229690  0.65790255  0.09325575    -0.76700
O1659       O  0.54761065  0.66713035  0.05080188    -0.86200
O1660       O  0.54798154  0.69584219  0.08043959    -0.85900
O1661       O  0.53752067  0.69748829  0.02439014    -0.72600
O1662       O  0.53840223  0.72322522  0.05094854    -0.84800
Zr1663     Zr  0.59770132  0.70394740  0.04189539     2.26400
Zr1664     Zr  0.56106289  0.67210696  0.01953658     2.06300
Zr1665     Zr  0.56175432  0.72662589  0.07599282     2.10000
Zr1666     Zr  0.57005361  0.66981218  0.07601942     1.78800
O1667       O  0.55372551  0.76082261  0.07769904    -0.93600
O1668       O  0.57174459  0.63519060  0.07041828    -0.41400
O1669       O  0.58468012  0.70057933  0.07331800    -0.78000
O1670       O  0.58414240  0.67295067  0.04484213    -0.96700
O1671       O  0.57633684  0.70190497  0.01561425    -0.90000
O1672       O  0.57589695  0.73047072  0.04526657    -0.92800
C1673       C  0.52386515  0.65965822  0.09289841     1.00900
C1674       C  0.51665427  0.72346789  0.09660790     1.13800
C1675       C  0.51878903  0.64894649  0.02867073     1.04600
O1676       O  0.56744469  0.63945386  0.00799984    -0.95000
O1677       O  0.59271448  0.66504662  0.00540878    -0.90700
O1678       O  0.61422901  0.68604650  0.01720515    -0.83900
C1679       C  0.60975496  0.67183647  0.00652808     1.11300
O1680       O  0.52522994  0.74154052  0.00536305    -0.97000
Zr1681     Zr  0.55399673  0.72763582  0.01992892     1.88900
O1682       O  0.60995329  0.72607627  0.01991463    -0.73600
O1683       O  0.55104173  0.67929540  0.98698818    -0.52900
O1684       O  0.54978524  0.72022191  0.98604349    -0.97600
O1685       O  0.54742564  0.76171207  0.02584621    -0.54800
O1686       O  0.58444281  0.74152609  0.00620696    -0.74100
C1687       C  0.60281816  0.73831494  0.00847037     0.98200
O1688       O  0.62795028  0.69029912  0.05379123    -0.63000
O1689       O  0.57197380  0.72441782  0.10929483    -0.57800
O1690       O  0.61343544  0.72930521  0.05839829    -0.94400
O1691       O  0.59220456  0.74326762  0.07938981    -0.92900
O1692       O  0.57719646  0.67213718  0.11007605    -0.93200
O1693       O  0.60205264  0.65847255  0.08532458    -0.92000
C1694       C  0.60903066  0.74148664  0.07162340     1.17100
H1695       H  0.54276475  0.69505942  0.09325854     0.33000
H1696       H  0.59393657  0.66304615  0.04294280     0.43800
H1697       H  0.58209404  0.74269238  0.04430313     0.37400
H1698       H  0.52743068  0.69634174  0.01501178     0.33900
H1699       H  0.55894051  0.63191160  0.06533428     0.25600
H1700       H  0.56165524  0.67406375  0.97878636     0.31600
H1701       H  0.56037320  0.72682827  0.97942922     0.37500
H1702       H  0.57154729  0.68466597  0.11427348     0.31900
H1703       H  0.57500662  0.73772403  0.11316852     0.30800
H1704       H  0.54056062  0.76202919  0.07244221     0.32500
H1705       H  0.55940036  0.76668551  0.03146589     0.31500
H1706       H  0.60757793  0.65191118  0.07381888     0.35500
H1707       H  0.63555441  0.70110189  0.05875324     0.28200
H1708       H  0.49450866  0.70690122  0.03231703     0.32400
H1709       H  0.51457038  0.73364260  0.01015134     0.35300
H1710       H  0.56023577  0.72146388  0.11673992     0.27900
H1711       H  0.62425053  0.68313535  0.06536502     0.40800
H1712       H  0.57387202  0.63294371  0.01883724     0.30800
H1713       H  0.58060627  0.63333326  0.05933740     0.38400
H1714       H  0.53800133  0.76212369  0.03657178     0.30300
H1715       H  0.54016793  0.67066994  0.98452763     0.30400
H1716       H  0.48913536  0.71385954  0.05312436     0.30600
Zr1717     Zr  0.66520460  0.67848426  0.20477356     2.17500
O1718       O  0.67624161  0.68909680  0.23610374    -0.51700
O1719       O  0.63750316  0.66062516  0.21404071    -0.74900
O1720       O  0.63573215  0.69624396  0.21643248    -0.81700
O1721       O  0.69768901  0.63390040  0.19647192    -0.83500
O1722       O  0.62618417  0.71440702  0.19123764    -0.79100
O1723       O  0.67762723  0.64796483  0.21877990    -0.90700
O1724       O  0.62077346  0.65699745  0.18636763    -0.76700
O1725       O  0.64282004  0.68675248  0.18062175    -0.86200
O1726       O  0.66543091  0.65324655  0.18136810    -0.85900
O1727       O  0.67546491  0.70902980  0.19211431    -0.72600
O1728       O  0.69727991  0.67828270  0.19100176    -0.84800
Zr1729     Zr  0.68178421  0.68809669  0.13136014     2.26400
Zr1730     Zr  0.65202863  0.71662510  0.16821325     2.06300
Zr1731     Zr  0.69712520  0.65247491  0.16795292     2.10000
Zr1732     Zr  0.64159250  0.66116519  0.15848203     1.78800
O1733       O  0.72933839  0.64336336  0.17854566    -0.93600
O1734       O  0.60861459  0.66816005  0.14858958    -0.41400
O1735       O  0.67302476  0.65802902  0.14427337    -0.78000
O1736       O  0.65003895  0.69120108  0.14469246    -0.96700
O1737       O  0.68251231  0.71466300  0.15298948    -0.90000
O1738       O  0.70636765  0.68192791  0.15408482    -0.92800
C1739       C  0.62234312  0.65642849  0.20471561     1.00900
C1740       C  0.68889377  0.63415331  0.21258790     1.13800
C1741       C  0.62308285  0.70670568  0.20754288     1.04600
O1742       O  0.62263007  0.73320974  0.15813760    -0.95000
O1743       O  0.65387124  0.73475918  0.13900900    -0.90700
O1744       O  0.66859242  0.71629819  0.11598215    -0.83900
C1745       C  0.65957000  0.73160523  0.12172488     1.11300
O1746       O  0.72292486  0.71818540  0.20468287    -0.97000
Zr1747     Zr  0.70639467  0.70801941  0.17576835     1.88900
O1748       O  0.70647722  0.70724699  0.12017257    -0.73600
O1749       O  0.65978895  0.74636230  0.18490389    -0.52900
O1750       O  0.70353816  0.74239165  0.18218914    -0.97600
O1751       O  0.73991182  0.69763631  0.17915643    -0.54800
O1752       O  0.71988915  0.72235282  0.14576629    -0.74100
C1753       C  0.71765784  0.71937587  0.12751584     0.98200
O1754       O  0.67007169  0.67839397  0.09994361    -0.63000
O1755       O  0.68976896  0.62031106  0.15641238    -0.57800
O1756       O  0.70680470  0.66736950  0.11707319    -0.94400
O1757       O  0.71736300  0.64701807  0.14008978    -0.92900
O1758       O  0.64014665  0.62624199  0.15880734    -0.93200
O1759       O  0.63340718  0.65218205  0.12572220    -0.92000
C1760       C  0.71825977  0.65410058  0.12323632     1.17100
H1761       H  0.66212006  0.64108368  0.18684216     0.33000
H1762       H  0.64089329  0.69466548  0.13488235     0.43800
H1763       H  0.71908424  0.68129082  0.14842909     0.37400
H1764       H  0.67540172  0.71854483  0.20229425     0.33900
H1765       H  0.60164739  0.65612202  0.15083525     0.25600
H1766       H  0.65754118  0.75654269  0.17533741     0.31600
H1767       H  0.69871958  0.74793072  0.17008054     0.37500
H1768       H  0.63464455  0.62311359  0.17149981     0.31900
H1769       H  0.70161746  0.61256778  0.15877182     0.30800
H1770       H  0.73082896  0.62956905  0.17512911     0.32500
H1771       H  0.74573242  0.69920856  0.16628718     0.31500
H1772       H  0.64523263  0.64594035  0.12035376     0.35500
H1773       H  0.67113771  0.66419854  0.09980321     0.28200
H1774       H  0.67419123  0.70320639  0.23612315     0.32400
H1775       H  0.71286229  0.71824734  0.21481830     0.35300
H1776       H  0.68025664  0.61545258  0.16571756     0.27900
H1777       H  0.65604174  0.68122089  0.10043426     0.40800
H1778       H  0.62396576  0.74663435  0.16267341     0.30800
H1779       H  0.60337806  0.67729711  0.15838291     0.38400
H1780       H  0.73940409  0.68356679  0.18087252     0.30300
H1781       H  0.64928387  0.74831269  0.19444714     0.30400
H1782       H  0.69041006  0.68724295  0.23548846     0.30600
Zr1783     Zr  0.78066226  0.46258361  0.42633246     2.17500
O1784       O  0.77075070  0.49520323  0.43529167    -0.51700
O1785       O  0.80330991  0.46998954  0.40168574    -0.74900
O1786       O  0.81203186  0.47530390  0.43766974    -0.81700
O1787       O  0.74331184  0.44858283  0.38826341    -0.83500
O1788       O  0.82241297  0.45601016  0.46174571    -0.79100
O1789       O  0.76386648  0.47232217  0.39654454    -0.90700
O1790       O  0.81720241  0.44110521  0.39334596    -0.76700
O1791       O  0.80523137  0.44042278  0.43544011    -0.86200
O1792       O  0.77911202  0.43575964  0.40483783    -0.85900
O1793       O  0.77309363  0.45409230  0.45911482    -0.72600
O1794       O  0.74892519  0.44951296  0.43052421    -0.84800
Zr1795     Zr  0.76835528  0.39220132  0.44936968     2.26400
Zr1796     Zr  0.79859404  0.43182551  0.46768518     2.06300
Zr1797     Zr  0.74830789  0.42209536  0.40938511     2.10000
Zr1798     Zr  0.80505718  0.41496880  0.41300281     1.78800
O1799       O  0.71365829  0.42814364  0.40870962    -0.93600
O1800       O  0.83959587  0.41464763  0.41887920    -0.41400
O1801       O  0.77440907  0.40057529  0.41677927    -0.78000
O1802       O  0.79974574  0.40513349  0.44544778    -0.96700
O1803       O  0.76779424  0.41828661  0.47167291    -0.90000
O1804       O  0.74166750  0.41248747  0.44099129    -0.92800
C1805       C  0.81489817  0.45942386  0.39169922     1.00900
C1806       C  0.75119881  0.46471967  0.38541236     1.13800
C1807       C  0.82467188  0.47001336  0.45024966     1.04600
O1808       O  0.82979448  0.42615762  0.48250973    -0.95000
O1809       O  0.80351545  0.40327765  0.48749949    -0.90700
O1810       O  0.78654959  0.37885836  0.47483424    -0.83900
C1811       C  0.79824761  0.38566922  0.48703842     1.11300
O1812       O  0.73094691  0.47080929  0.47444519    -0.97000
Zr1813     Zr  0.74174429  0.43927757  0.46270511     1.88900
O1814       O  0.75158172  0.39962815  0.47853631    -0.73600
O1815       O  0.79163831  0.45067993  0.49662363    -0.52900
O1816       O  0.74119907  0.44444347  0.49731998    -0.97600
O1817       O  0.70960834  0.44619231  0.45036352    -0.54800
O1818       O  0.72315036  0.41169529  0.47415101    -0.74100
C1819       C  0.73369863  0.39722810  0.47849209     0.98200
O1820       O  0.77277497  0.35736328  0.44716541    -0.63000
O1821       O  0.74913484  0.41097360  0.37606856    -0.57800
O1822       O  0.74519923  0.37230821  0.43330918    -0.94400
O1823       O  0.73632925  0.38963079  0.40731977    -0.92900
O1824       O  0.80439360  0.40184183  0.38052353    -0.93200
O1825       O  0.81745816  0.38205930  0.41095641    -0.92000
C1826       C  0.73678404  0.37408806  0.41709577     1.17100
H1827       H  0.78057405  0.43937663  0.39159968     0.33000
H1828       H  0.80962490  0.39590130  0.44901025     0.43800
H1829       H  0.72952534  0.40600176  0.44097018     0.37400
H1830       H  0.77353427  0.46548783  0.46710957     0.33900
H1831       H  0.84557047  0.41297119  0.40601537     0.25600
H1832       H  0.79467581  0.44183232  0.50724287     0.31600
H1833       H  0.74155330  0.43145627  0.50292842     0.37500
H1834       H  0.79174981  0.39562367  0.37954656     0.31900
H1835       H  0.75964966  0.41816576  0.36998414     0.30800
H1836       H  0.71050206  0.42905225  0.39492565     0.32500
H1837       H  0.70988590  0.45953746  0.44565679     0.31500
H1838       H  0.80595919  0.37401984  0.41240110     0.35500
H1839       H  0.78687272  0.35491766  0.44661523     0.28200
H1840       H  0.75656471  0.49470018  0.43658326     0.32400
H1841       H  0.73483239  0.47976748  0.46427368     0.35300
H1842       H  0.75417584  0.39758120  0.37641026     0.27900
H1843       H  0.76850171  0.35210710  0.45958177     0.40800
H1844       H  0.83771157  0.41967400  0.47238504     0.30800
H1845       H  0.84250009  0.42800450  0.42269318     0.38400
H1846       H  0.70114295  0.44681899  0.46184866     0.30300
H1847       H  0.80194930  0.46027207  0.49708408     0.30400
H1848       H  0.77291598  0.50276346  0.42356650     0.30600
Zr1849     Zr  0.79466201  0.30008811  0.27646439     2.17500
O1850       O  0.78339934  0.29440415  0.24396425    -0.51700
O1851       O  0.82210981  0.32011594  0.27038417    -0.74900
O1852       O  0.78376121  0.33230581  0.26579039    -0.81700
O1853       O  0.82415679  0.25326769  0.27923289    -0.83500
O1854       O  0.77077115  0.34736570  0.29219488    -0.79100
O1855       O  0.81952886  0.27932862  0.26036329    -0.90700
O1856       O  0.83809289  0.32196806  0.29868360    -0.76700
O1857       O  0.79759673  0.32132708  0.30323947    -0.86200
O1858       O  0.81671481  0.28551233  0.29830411    -0.85900
O1859       O  0.76265109  0.30371283  0.29040616    -0.72600
O1860       O  0.77986026  0.27027811  0.28544666    -0.84800
Zr1861     Zr  0.77535072  0.28081715  0.34745254     2.26400
Zr1862     Zr  0.76644339  0.32477960  0.31749148     2.06300
Zr1863     Zr  0.80256276  0.25565257  0.30689139     2.10000
Zr1864     Zr  0.82002994  0.30694774  0.32430864     1.78800
O1865       O  0.78404359  0.22834161  0.29605877    -0.93600
O1866       O  0.82608742  0.33954945  0.33548759    -0.41400
O1867       O  0.80682772  0.27704756  0.33364102    -0.78000
O1868       O  0.78904112  0.31095074  0.33927988    -0.96700
O1869       O  0.75239604  0.29575265  0.32716115    -0.90000
O1870       O  0.77147855  0.25891992  0.32130579    -0.92800
C1871       C  0.83602440  0.32584638  0.28083283     1.00900
C1872       C  0.82857816  0.26354381  0.26475252     1.13800
C1873       C  0.77655072  0.34718444  0.27473932     1.04600
O1874       O  0.77512070  0.35532562  0.33207805    -0.95000
O1875       O  0.74910881  0.32833017  0.34768682    -0.90700
O1876       O  0.75517210  0.30259494  0.36657959    -0.83900
C1877       C  0.74727186  0.31905487  0.36337918     1.11300
O1878       O  0.73619422  0.26743883  0.26931029    -0.97000
Zr1879     Zr  0.74854394  0.27425814  0.30120912     1.88900
O1880       O  0.74800692  0.26140143  0.35247004    -0.73600
O1881       O  0.73486538  0.33739027  0.30841121    -0.52900
O1882       O  0.71821864  0.29017690  0.29290062    -0.97600
O1883       O  0.73996084  0.24051432  0.29890795    -0.54800
O1884       O  0.72735210  0.27202945  0.33011422    -0.74100
C1885       C  0.73106536  0.26557640  0.34700285     0.98200
O1886       O  0.78719542  0.28338610  0.38016180    -0.63000
O1887       O  0.82523400  0.22854287  0.30923630    -0.57800
O1888       O  0.78621985  0.24958864  0.35731052    -0.94400
O1889       O  0.81233787  0.24485619  0.33861033    -0.92900
O1890       O  0.85076535  0.28947673  0.32533013    -0.93200
O1891       O  0.83469140  0.30803673  0.35590868    -0.92000
C1892       C  0.80342515  0.24341470  0.35473593     1.17100
H1893       H  0.82974089  0.28425336  0.29354331     0.33000
H1894       H  0.78999838  0.31890498  0.35064876     0.43800
H1895       H  0.76717680  0.24656164  0.32550862     0.37400
H1896       H  0.75421598  0.30973688  0.28119669     0.33900
H1897       H  0.82239655  0.34785518  0.32463220     0.25600
H1898       H  0.72566346  0.33085815  0.31691529     0.31600
H1899       H  0.72110800  0.30400591  0.29244247     0.37500
H1900       H  0.84728810  0.27580552  0.32630945     0.31900
H1901       H  0.82358575  0.22079374  0.29740166     0.30800
H1902       H  0.78312786  0.22987228  0.28200000     0.32500
H1903       H  0.72702558  0.24057809  0.29303667     0.31500
H1904       H  0.82377065  0.31004124  0.36496793     0.35500
H1905       H  0.78990617  0.29715541  0.38217102     0.28200
H1906       H  0.78900107  0.30483005  0.23633085     0.32400
H1907       H  0.74545317  0.27344726  0.26047653     0.35300
H1908       H  0.83819504  0.23408850  0.30800916     0.27900
H1909       H  0.77597130  0.28090915  0.38854851     0.40800
H1910       H  0.77821531  0.35241621  0.34557952     0.30800
H1911       H  0.81610052  0.34233974  0.34538924     0.38400
H1912       H  0.73756420  0.23653524  0.31227764     0.30300
H1913       H  0.73465595  0.35087688  0.31306544     0.30400
H1914       H  0.76943992  0.29757097  0.24455196     0.30600
Zr1915     Zr  0.93285658  0.32219685  0.42335815     2.17500
O1916       O  0.96474749  0.30847806  0.42924342    -0.51700
O1917       O  0.94184247  0.35171741  0.40765581    -0.74900
O1918       O  0.94515342  0.31058935  0.39121842    -0.81700
O1919       O  0.92662923  0.35342665  0.46896632    -0.83500
O1920       O  0.92112232  0.29364648  0.37749627    -0.79100
O1921       O  0.94741487  0.34688822  0.44422598    -0.90700
O1922       O  0.91366824  0.36803677  0.40232044    -0.76700
O1923       O  0.90889807  0.32345166  0.39931759    -0.86200
O1924       O  0.90945703  0.34602188  0.43308950    -0.85900
O1925       O  0.91856399  0.29075923  0.42398455    -0.72600
O1926       O  0.91991671  0.31149643  0.45392178    -0.84800
Zr1927     Zr  0.85835783  0.30924584  0.43720098     2.26400
Zr1928     Zr  0.89473473  0.29273249  0.39950867     2.06300
Zr1929     Zr  0.89728637  0.33639070  0.46316437     2.10000
Zr1930     Zr  0.88636452  0.34797594  0.40843049     1.78800
O1931       O  0.90832420  0.32918097  0.49540298    -0.93600
O1932       O  0.88822825  0.34961376  0.37356394    -0.41400
O1933       O  0.87304339  0.33985659  0.43898653    -0.78000
O1934       O  0.87124107  0.31750855  0.40653122    -0.96700
O1935       O  0.88037446  0.28408540  0.42890802    -0.90000
O1936       O  0.88133737  0.30664565  0.46232510    -0.92800
C1937       C  0.93212169  0.36674232  0.40277188     1.00900
C1938       C  0.94208967  0.35646374  0.45944336     1.13800
C1939       C  0.93780831  0.30091355  0.37712175     1.04600
O1940       O  0.88075341  0.29641286  0.36780950    -0.95000
O1941       O  0.86757349  0.27245295  0.39839117    -0.90700
O1942       O  0.84403739  0.28321863  0.41874313    -0.83900
C1943       C  0.85082524  0.27140436  0.40593477     1.11300
O1944       O  0.93112730  0.26142281  0.46028347    -0.97000
Zr1945     Zr  0.90280294  0.28137115  0.45363773     1.88900
O1946       O  0.84666495  0.28515123  0.45725219    -0.73600
O1947       O  0.90627014  0.26018843  0.39183816    -0.52900
O1948       O  0.90289974  0.24891571  0.44029253    -0.97600
O1949       O  0.91103651  0.28123257  0.48751814    -0.54800
O1950       O  0.87249151  0.26719901  0.46711279    -0.74100
C1951       C  0.85412439  0.27114655  0.46628926     0.98200
O1952       O  0.82778896  0.32228036  0.42561700    -0.63000
O1953       O  0.88853717  0.36971027  0.47078431    -0.57800
O1954       O  0.84411266  0.32514375  0.46534898    -0.94400
O1955       O  0.86815936  0.33934797  0.48189342    -0.92900
O1956       O  0.87503347  0.37983091  0.41874367    -0.93200
O1957       O  0.85534998  0.35894512  0.39618266    -0.92000
C1958       C  0.85052775  0.33489747  0.47964505     1.17100
H1959       H  0.91455970  0.35863572  0.43500920     0.33000
H1960       H  0.86123008  0.31764432  0.39698590     0.43800
H1961       H  0.87546772  0.30403648  0.47458267     0.37400
H1962       H  0.92828017  0.28119252  0.42050399     0.33900
H1963       H  0.88727705  0.36349842  0.37073852     0.25600
H1964       H  0.92032662  0.26009964  0.39407807     0.31600
H1965       H  0.89756275  0.24089522  0.45059693     0.37500
H1966       H  0.88650179  0.38611290  0.42407071     0.31900
H1967       H  0.89683280  0.37335180  0.48166061     0.30800
H1968       H  0.89681426  0.32462246  0.50230062     0.32500
H1969       H  0.89943020  0.28644641  0.49424834     0.31500
H1970       H  0.84590973  0.35462463  0.40583346     0.35500
H1971       H  0.81810573  0.31285232  0.42958260     0.28200
H1972       H  0.96450310  0.30503078  0.44297141     0.32400
H1973       H  0.94214383  0.26969663  0.45729909     0.35300
H1974       H  0.89340599  0.37714857  0.45982537     0.27900
H1975       H  0.82496296  0.33376532  0.43373134     0.40800
H1976       H  0.88750692  0.30738380  0.36213156     0.30800
H1977       H  0.90169172  0.34593351  0.37018118     0.38400
H1978       H  0.92071152  0.29137076  0.48894829     0.30300
H1979       H  0.90104402  0.25214027  0.40216781     0.30400
H1980       H  0.97347260  0.31950973  0.42856493     0.30600
Zr1981     Zr  0.91237343  0.42700233  0.26836124     2.17500
O1982       O  0.92251479  0.43067691  0.23513155    -0.51700
O1983       O  0.89359491  0.39802190  0.26430474    -0.74900
O1984       O  0.93458053  0.40018538  0.26089899    -0.81700
O1985       O  0.87721109  0.46725651  0.25999994    -0.83500
O1986       O  0.95123621  0.39381921  0.28807678    -0.79100
O1987       O  0.88457895  0.43708942  0.24929709    -0.90700
O1988       O  0.87882423  0.39323413  0.29301280    -0.76700
O1989       O  0.91455780  0.40907180  0.29709422    -0.86200
O1990       O  0.88498601  0.43617061  0.28744849    -0.85900
O1991       O  0.94223748  0.43668834  0.28296244    -0.72600
O1992       O  0.91545673  0.46115704  0.27406590    -0.84800
Zr1993     Zr  0.91744216  0.46074969  0.33706403     2.26400
Zr1994     Zr  0.94375521  0.41858716  0.31186649     2.06300
Zr1995     Zr  0.88762029  0.46998983  0.29281256     2.10000
Zr1996     Zr  0.88702471  0.41793576  0.31574100     1.78800
O1997       O  0.89181847  0.50366340  0.28502805    -0.93600
O1998       O  0.89251479  0.38832572  0.33334124    -0.41400
O1999       O  0.88866581  0.45149772  0.32137157    -0.78000
O2000       O  0.91599151  0.42652133  0.33135933    -0.96700
O2001       O  0.94570059  0.45189330  0.31911182    -0.90000
O2002       O  0.91603428  0.47985858  0.30869546    -0.92800
C2003       C  0.88268997  0.38860412  0.27559057     1.00900
C2004       C  0.87452720  0.45279729  0.24893900     1.13800
C2005       C  0.94678573  0.39015825  0.27060432     1.04600
O2006       O  0.94667075  0.38783043  0.32798661    -0.95000
O2007       O  0.95618688  0.42207726  0.34395726    -0.90700
O2008       O  0.93473396  0.44120983  0.36022071    -0.83900
C2009       C  0.94809370  0.42815584  0.35950826     1.11300
O2010       O  0.95408366  0.47787363  0.25827717    -0.97000
Zr2011     Zr  0.94426965  0.47046990  0.29093536     1.88900
O2012       O  0.93570424  0.48962482  0.33712691    -0.73600
O2013       O  0.97841496  0.42032596  0.30663795    -0.52900
O2014       O  0.97840934  0.46696236  0.28308389    -0.97600
O2015       O  0.94002250  0.50506271  0.28729941    -0.54800
O2016       O  0.96167026  0.48135103  0.31983915    -0.74100
C2017       C  0.95382512  0.48899309  0.33492345     0.98200
O2018       O  0.91731342  0.47157518  0.37047736    -0.63000
O2019       O  0.85384821  0.47526651  0.28449028    -0.57800
O2020       O  0.88586760  0.47338390  0.34686208    -0.94400
O2021       O  0.86916660  0.48205746  0.32033899    -0.92900
O2022       O  0.85215943  0.42205447  0.31329213    -0.93200
O2023       O  0.87060715  0.41763637  0.34672663    -0.92000
C2024       C  0.87076926  0.48007093  0.33851766     1.17100
H2025       H  0.87286189  0.43321592  0.28154243     0.33000
H2026       H  0.91602432  0.41911954  0.34296691     0.43800
H2027       H  0.91500528  0.49349692  0.31125029     0.37400
H2028       H  0.95283415  0.43306435  0.27453770     0.33900
H2029       H  0.88230032  0.37962150  0.32899437     0.25600
H2030       H  0.98317652  0.40684222  0.30708192     0.31600
H2031       H  0.98340078  0.48015430  0.28398386     0.37500
H2032       H  0.84812269  0.41268123  0.30342057     0.31900
H2033       H  0.84673276  0.46540059  0.29156606     0.30800
H2034       H  0.87866021  0.50940738  0.28555923     0.32500
H2035       H  0.93440178  0.50677981  0.27441648     0.31500
H2036       H  0.86862656  0.43135151  0.35025839     0.35500
H2037       H  0.91369650  0.48539622  0.37019187     0.28200
H2038       H  0.91668705  0.41975799  0.22824407     0.32400
H2039       H  0.95264553  0.46566934  0.25105816     0.35300
H2040       H  0.84974379  0.48767643  0.29043075     0.27900
H2041       H  0.90620917  0.46534109  0.37662662     0.40800
H2042       H  0.96070908  0.38545971  0.32928665     0.30800
H2043       H  0.90454835  0.38270987  0.32776638     0.38400
H2044       H  0.95327361  0.50991413  0.28616206     0.30300
H2045       H  0.98005713  0.42400611  0.29307508     0.30400
H2046       H  0.93651124  0.42766121  0.23500020     0.30600
Zr2047     Zr  0.70651006  0.50809413  0.21711639     2.17500
O2048       O  0.68329444  0.51801149  0.19279089    -0.51700
O2049       O  0.70381697  0.54343843  0.22016141    -0.74900
O2050       O  0.67327938  0.50436762  0.22707033    -0.81700
O2051       O  0.74472199  0.49675953  0.17778244    -0.83500
O2052       O  0.67175040  0.49682841  0.25863233    -0.79100
O2053       O  0.71303955  0.50355577  0.18309303    -0.90700
O2054       O  0.72481961  0.55436723  0.24213661    -0.76700
O2055       O  0.71161060  0.51769467  0.24939302    -0.86200
O2056       O  0.73910462  0.51805074  0.21784205    -0.85900
O2057       O  0.70065190  0.47942780  0.23538058    -0.72600
O2058       O  0.72571934  0.48042798  0.20755399    -0.84800
Zr2059     Zr  0.75754637  0.47206148  0.26084224     2.26400
Zr2060     Zr  0.70545838  0.48961149  0.26794693     2.06300
Zr2061     Zr  0.75842007  0.49030865  0.20911908     2.10000
Zr2062     Zr  0.74457731  0.52691321  0.25036227     1.78800
O2063       O  0.77031821  0.46923173  0.18336099    -0.93600
O2064       O  0.73823539  0.54423044  0.28036983    -0.41400
O2065       O  0.76436149  0.49959156  0.24159936    -0.78000
O2066       O  0.73829267  0.49986382  0.26980893    -0.96700
O2067       O  0.72511105  0.46179476  0.25940839    -0.90000
O2068       O  0.75309365  0.46268502  0.22832975    -0.92800
C2069       C  0.71109848  0.55704193  0.23029142     1.00900
C2070       C  0.72753273  0.50030880  0.17191498     1.13800
C2071       C  0.66382414  0.50082392  0.24243081     1.04600
O2072       O  0.69426622  0.51443638  0.29051420    -0.95000
O2073       O  0.71856254  0.48250209  0.29970398    -0.90700
O2074       O  0.74948393  0.47190318  0.29503023    -0.83900
C2075       C  0.73510063  0.47673670  0.30593747     1.11300
O2076       O  0.69596327  0.44287315  0.20456598    -0.97000
Zr2077     Zr  0.72103492  0.45248136  0.22669940     1.88900
O2078       O  0.75963921  0.43709788  0.26175387    -0.73600
O2079       O  0.68508398  0.46488689  0.28108157    -0.52900
O2080       O  0.69724969  0.43181091  0.24115584    -0.97600
O2081       O  0.73309216  0.43700602  0.19732747    -0.54800
O2082       O  0.74019020  0.42538639  0.23870616    -0.74100
C2083       C  0.75305675  0.42315829  0.25168251     0.98200
O2084       O  0.78560462  0.47543701  0.28137312    -0.63000
O2085       O  0.77931858  0.51635813  0.19995921    -0.57800
O2086       O  0.78914851  0.46571363  0.24695354    -0.94400
O2087       O  0.79019659  0.47695020  0.21641746    -0.92900
O2088       O  0.76609813  0.54818933  0.23333686    -0.93200
O2089       O  0.77359795  0.53224557  0.26890803    -0.92000
C2090       C  0.79776798  0.46857010  0.23092852     1.17100
H2091       H  0.74114108  0.52852532  0.20915316     0.33000
H2092       H  0.74131170  0.50422743  0.28258295     0.43800
H2093       H  0.76182056  0.45234415  0.22448583     0.37400
H2094       H  0.68795399  0.47439190  0.23369709     0.33900
H2095       H  0.74064151  0.55785256  0.27744776     0.25600
H2096       H  0.69415695  0.45492256  0.28587569     0.31600
H2097       H  0.70278544  0.42814992  0.25366644     0.37500
H2098       H  0.75787080  0.55555878  0.22438543     0.31900
H2099       H  0.79088924  0.51475913  0.20804190     0.30800
H2100       H  0.78133721  0.47601964  0.17770086     0.32500
H2101       H  0.74497383  0.42993689  0.20105935     0.31500
H2102       H  0.77957000  0.51933036  0.27048105     0.35500
H2103       H  0.78273457  0.48668848  0.28979735     0.28200
H2104       H  0.67485216  0.52795641  0.19895662     0.32400
H2105       H  0.68670697  0.45387870  0.20443336     0.35300
H2106       H  0.78381470  0.51288099  0.18684626     0.27900
H2107       H  0.78560373  0.46421298  0.28996190     0.40800
H2108       H  0.68705307  0.52384369  0.28264276     0.30800
H2109       H  0.72410887  0.54366616  0.28220064     0.38400
H2110       H  0.73770271  0.44764199  0.18932726     0.30300
H2111       H  0.67929844  0.47082111  0.29279850     0.30400
H2112       H  0.67486901  0.50690192  0.19067038     0.30600
Zr2113     Zr  0.72092660  0.72299127  0.00364470     2.17500
O2114       O  0.69264707  0.70623241  0.01512798    -0.51700
O2115       O  0.72353907  0.72697586  0.03916209    -0.74900
O2116       O  0.72557240  0.68727555  0.00182696    -0.81700
O2117       O  0.68943900  0.76719137  0.98785303    -0.83500
O2118       O  0.75598811  0.67998102  0.99149932    -0.79100
O2119       O  0.68836442  0.73617694  0.99777404    -0.90700
O2120       O  0.74973834  0.74445131  0.04672385    -0.76700
O2121       O  0.75431333  0.72222359  0.01113511    -0.86200
O2122       O  0.72934568  0.75559507  0.01024214    -0.85900
O2123       O  0.73674367  0.71080347  0.97491640    -0.72600
O2124       O  0.71497757  0.74139145  0.97507228    -0.84800
Zr2125     Zr  0.77412639  0.75957024  0.96109502     2.26400
Zr2126     Zr  0.77022320  0.70989554  0.98281329     2.06300
Zr2127     Zr  0.72374771  0.77376804  0.98163262     2.10000
Zr2128     Zr  0.76292218  0.75480730  0.01708930     1.78800
O2129       O  0.70387140  0.78985200  0.95779306    -0.93600
O2130       O  0.78922494  0.74016407  0.03513345    -0.41400
O2131       O  0.75749126  0.77289395  0.98876192    -0.78000
O2132       O  0.77998264  0.74199113  0.99008124    -0.96700
O2133       O  0.76478192  0.72765481  0.95412133    -0.90000
O2134       O  0.74050541  0.76162946  0.95346688    -0.92800
C2135       C  0.73510694  0.73479528  0.05130957     1.00900
C2136       C  0.68016019  0.75213210  0.99278845     1.13800
C2137       C  0.73918286  0.67507500  0.99699430     1.04600
O2138       O  0.78967012  0.69407806  0.00711354    -0.95000
O2139       O  0.80372400  0.71342693  0.97463176    -0.90700
O2140       O  0.80601999  0.74338279  0.96215375    -0.83900
C2141       C  0.81333774  0.72719407  0.96764722     1.11300
O2142       O  0.70449777  0.70797675  0.94251951    -0.97000
Zr2143     Zr  0.73135866  0.72944743  0.94698219     1.88900
O2144       O  0.77289602  0.75566951  0.92607407    -0.73600
O2145       O  0.77712075  0.68608842  0.95767942    -0.52900
O2146       O  0.74100774  0.70002488  0.92994374    -0.97600
O2147       O  0.70497962  0.74434984  0.92929831    -0.54800
O2148       O  0.74671636  0.73871959  0.91751906    -0.74100
C2149       C  0.76202525  0.74777433  0.91351226     0.98200
O2150       O  0.80303659  0.77630355  0.95112093    -0.63000
O2151       O  0.71440516  0.79685258  0.00667746    -0.57800
O2152       O  0.77122165  0.79485163  0.96387527    -0.94400
O2153       O  0.74082873  0.80325460  0.97354193    -0.92900
O2154       O  0.75297489  0.78456952  0.03332197    -0.93200
O2155       O  0.79017880  0.77565652  0.02214080    -0.92000
C2156       C  0.75800071  0.80752328  0.96807427     1.17100
H2157       H  0.72187588  0.76091303  0.02084932     0.33000
H2158       H  0.79319612  0.74245286  0.99416306     0.43800
H2159       H  0.73820510  0.76987283  0.94263974     0.37400
H2160       H  0.73225495  0.69843920  0.97082003     0.33900
H2161       H  0.78919955  0.74712158  0.04759497     0.25600
H2162       H  0.78205335  0.69345967  0.94670058     0.31600
H2163       H  0.73553053  0.70137743  0.91695178     0.37500
H2164       H  0.75691449  0.78287462  0.04681891     0.31900
H2165       H  0.72656061  0.80297245  0.01044505     0.30800
H2166       H  0.70507810  0.80374133  0.96057369     0.32500
H2167       H  0.71095314  0.75470551  0.92185972     0.31500
H2168       H  0.79293877  0.78097438  0.00933222     0.35500
H2169       H  0.79886452  0.78587618  0.94153548     0.28200
H2170       H  0.69719683  0.69837523  0.02599897     0.32400
H2171       H  0.69496549  0.71205400  0.95246464     0.35300
H2172       H  0.70710865  0.80704044  0.99989349     0.27900
H2173       H  0.80708536  0.78390123  0.96242417     0.40800
H2174       H  0.79698730  0.70452972  0.01317909     0.30800
H2175       H  0.78472095  0.72718679  0.03831532     0.38400
H2176       H  0.69709366  0.75118746  0.93921119     0.30300
H2177       H  0.78847110  0.67871160  0.96231675     0.30400
H2178       H  0.68953812  0.69682348  0.00491750     0.30600
Zr2179     Zr  0.15663443  0.19061177  0.21139072     2.17500
O2180       O  0.17152215  0.19846427  0.24189681    -0.51700
O2181       O  0.13163257  0.16984025  0.22290742    -0.74900
O2182       O  0.13039045  0.20994036  0.22681857    -0.81700
O2183       O  0.18227555  0.14439533  0.19484267    -0.83500
O2184       O  0.12930721  0.23865921  0.21187784    -0.79100
O2185       O  0.17052155  0.15946924  0.22181775    -0.90700
O2186       O  0.11141192  0.16702042  0.19759359    -0.76700
O2187       O  0.13132763  0.20371603  0.19248712    -0.86200
O2188       O  0.15148127  0.16789408  0.18616026    -0.85900
O2189       O  0.16749366  0.22117625  0.19948411    -0.72600
O2190       O  0.18658740  0.18818823  0.19351209    -0.84800
Zr2191     Zr  0.16447044  0.20793113  0.13833508     2.26400
Zr2192     Zr  0.14182534  0.23365988  0.17992993     2.06300
Zr2193     Zr  0.18075951  0.16578751  0.16797148     2.10000
Zr2194     Zr  0.12522393  0.18035716  0.16867642     1.78800
O2195       O  0.21455487  0.15721210  0.17273563    -0.93600
O2196       O  0.09309896  0.19501792  0.17126511    -0.41400
O2197       O  0.15412821  0.17745347  0.14971014    -0.78000
O2198       O  0.13480355  0.21001174  0.15578516    -0.96700
O2199       O  0.17104922  0.23148468  0.16211618    -0.90000
O2200       O  0.19102036  0.19547378  0.15596234    -0.92800
C2201       C  0.11623179  0.16384948  0.21502516     1.00900
C2202       C  0.17797000  0.14479585  0.21273087     1.13800
C2203       C  0.12329576  0.22706887  0.22456251     1.04600
O2204       O  0.11239580  0.25308139  0.18328296    -0.95000
O2205       O  0.12751329  0.24582287  0.15034326    -0.90700
O2206       O  0.15079115  0.23858974  0.12886490    -0.83900
C2207       C  0.13373735  0.24457819  0.13296264     1.11300
O2208       O  0.21114531  0.22730978  0.21096018    -0.97000
Zr2209     Zr  0.19676109  0.21827587  0.18051230     1.88900
O2210       O  0.19163268  0.22496187  0.12694116    -0.73600
O2211       O  0.15897554  0.26360678  0.18321713    -0.52900
O2212       O  0.20412335  0.25221625  0.18316633    -0.97600
O2213       O  0.22783383  0.20202817  0.18475298    -0.54800
O2214       O  0.21389554  0.22640051  0.15064746    -0.74100
C2215       C  0.20843012  0.22857566  0.13317010     0.98200
O2216       O  0.14852207  0.20132299  0.10808874    -0.63000
O2217       O  0.17450209  0.13370940  0.15549570    -0.57800
O2218       O  0.18063449  0.18650564  0.11638557    -0.94400
O2219       O  0.19065328  0.16127599  0.13448366    -0.92900
O2220       O  0.12035070  0.14714818  0.15892255    -0.93200
O2221       O  0.10623860  0.17789859  0.13956462    -0.92000
C2222       C  0.18885873  0.17010564  0.11843938     1.17100
H2223       H  0.14802548  0.15543700  0.19084682     0.33000
H2224       H  0.12420750  0.21319594  0.14748389     0.43800
H2225       H  0.20237062  0.19327793  0.14810526     0.37400
H2226       H  0.16950064  0.22985538  0.21014657     0.33900
H2227       H  0.08479929  0.18478229  0.17621944     0.25600
H2228       H  0.14878908  0.27373781  0.18259676     0.31600
H2229       H  0.21766671  0.25305700  0.17876211     0.37500
H2230       H  0.10765056  0.14393313  0.16442374     0.31900
H2231       H  0.18287835  0.12488803  0.16291560     0.30800
H2232       H  0.22117557  0.16151697  0.16097820     0.32500
H2233       H  0.23725213  0.21249091  0.18521975     0.31500
H2234       H  0.11411668  0.18393445  0.12950646     0.35500
H2235       H  0.13485804  0.20503468  0.11032280     0.28200
H2236       H  0.16106278  0.19717474  0.25148894     0.32400
H2237       H  0.20477722  0.21914850  0.22053703     0.35300
H2238       H  0.16125887  0.13099955  0.15988974     0.27900
H2239       H  0.15348620  0.21089238  0.09902979     0.40800
H2240       H  0.10189424  0.24406554  0.18056177     0.30800
H2241       H  0.09388087  0.20439612  0.18198965     0.38400
H2242       H  0.23050630  0.19544188  0.17233940     0.30300
H2243       H  0.16324926  0.26388919  0.19672232     0.30400
H2244       H  0.17372906  0.21243953  0.24137567     0.30600
Zr2245     Zr  0.03677460  0.06754482  0.22037848     2.17500
O2246       O  0.02148761  0.06405362  0.25162743    -0.51700
O2247       O  0.05620579  0.09514439  0.22839263    -0.74900
O2248       O  0.06396441  0.05724472  0.24036281    -0.81700
O2249       O  0.00129855  0.10087961  0.19504159    -0.83500
O2250       O  0.06902256  0.02569589  0.23352031    -0.79100
O2251       O  0.01414362  0.09475318  0.22432549    -0.90700
O2252       O  0.07852375  0.09616962  0.20438270    -0.76700
O2253       O  0.06573342  0.05517340  0.20619412    -0.86200
O2254       O  0.04147727  0.08557799  0.19197382    -0.85900
O2255       O  0.03143287  0.03373704  0.21438958    -0.72600
O2256       O  0.00953682  0.06089596  0.20028254    -0.84800
Zr2257     Zr  0.04077585  0.03384764  0.15216174     2.26400
Zr2258     Zr  0.06091698  0.02175879  0.20004883     2.06300
Zr2259     Zr  0.01513024  0.07863925  0.17167359     2.10000
Zr2260     Zr  0.07100860  0.07390062  0.17866626     1.78800
O2261       O  0.98092945  0.08476669  0.16645050    -0.93600
O2262       O  0.10468431  0.06809687  0.18687479    -0.41400
O2263       O  0.04487990  0.06760537  0.15749073    -0.78000
O2264       O  0.06768196  0.04053622  0.17223991    -0.96700
O2265       O  0.03461789  0.01502825  0.17965267    -0.90000
O2266       O  0.01078786  0.04565144  0.16487985    -0.92800
C2267       C  0.07117124  0.10209225  0.22036503     1.00900
C2268       C  0.00315538  0.10446288  0.21300614     1.13800
C2269       C  0.07275835  0.04103223  0.24291092     1.04600
O2270       O  0.09205442  0.00897351  0.21025239    -0.95000
O2271       O  0.07935143  0.00352406  0.17569296    -0.90700
O2272       O  0.06495764  0.00922944  0.14708662    -0.83900
C2273       C  0.07808016  0.00146277  0.15739072     1.11300
O2274       O  0.98581366  0.02241857  0.22148978    -0.97000
Zr2275     Zr  0.00506582  0.02743508  0.19272323     1.88900
O2276       O  0.02232484  0.00527076  0.14937500    -0.73600
O2277       O  0.04764776  0.99104728  0.20898172    -0.52900
O2278       O  0.00457149  0.99401488  0.20250321    -0.97600
O2279       O  0.97147192  0.03804045  0.19119750    -0.54800
O2280       O  0.99366881  0.01267980  0.16249204    -0.74100
C2281       C  0.00407893  0.00554900  0.14873449     0.98200
O2282       O  0.05758217  0.03150072  0.12133833    -0.63000
O2283       O  0.02396965  0.10911520  0.15754894    -0.57800
O2284       O  0.02208059  0.04709723  0.12620523    -0.94400
O2285       O  0.00822995  0.07470637  0.13792549    -0.92900
O2286       O  0.07074704  0.10382618  0.16092337    -0.93200
O2287       O  0.09237822  0.07256440  0.15078966    -0.92000
C2288       C  0.01193491  0.06253089  0.12434980     1.17100
H2289       H  0.04177859  0.09922450  0.19450129     0.33000
H2290       H  0.07973004  0.03683226  0.16616009     0.43800
H2291       H  0.00024821  0.04468652  0.15602391     0.37400
H2292       H  0.02928284  0.02733461  0.22640520     0.33900
H2293       H  0.11090086  0.08063258  0.18516923     0.25600
H2294       H  0.05418095  0.98157338  0.20031719     0.31600
H2295       H  0.00960878  0.98662392  0.19127228     0.37500
H2296       H  0.07148196  0.11407742  0.17081906     0.31900
H2297       H  0.01178340  0.11451192  0.15241080     0.30800
H2298       H  0.98036630  0.09583650  0.15767860     0.32500
H2299       H  0.96440060  0.02642336  0.18739433     0.31500
H2300       H  0.08604515  0.06382062  0.14161701     0.35500
H2301       H  0.04906324  0.02416314  0.11275921     0.28200
H2302       H  0.02988834  0.05486358  0.25856565     0.32400
H2303       H  0.99391907  0.02685765  0.23220407     0.35300
H2304       H  0.02697064  0.11761489  0.16854678     0.27900
H2305       H  0.05762754  0.04468419  0.11618159     0.40800
H2306       H  0.10091524  0.01984374  0.20895186     0.30800
H2307       H  0.10465050  0.06611803  0.20091245     0.38400
H2308       H  0.97081300  0.04638249  0.17981651     0.30300
H2309       H  0.05310797  0.98840297  0.22177509     0.30400
H2310       H  0.00967283  0.05682839  0.24892927     0.30600
Zr2311     Zr  0.04918493  0.20399245  0.04840741     2.17500
O2312       O  0.03127254  0.23250725  0.03835215    -0.51700
O2313       O  0.07123160  0.21894250  0.06985734    -0.74900
O2314       O  0.03474210  0.21370738  0.08050775    -0.81700
O2315       O  0.07768005  0.20432049  0.00176807    -0.83500
O2316       O  0.02443259  0.18653848  0.09494293    -0.79100
O2317       O  0.07599771  0.21988260  0.03022095    -0.90700
O2318       O  0.09285109  0.19511204  0.07721221    -0.76700
O2319       O  0.05397583  0.18057284  0.07248776    -0.86200
O2320       O  0.07730229  0.18522444  0.03953480    -0.85900
O2321       O  0.02082633  0.18393561  0.04847084    -0.72600
O2322       O  0.04143159  0.18890509  0.01793965    -0.84800
Zr2323     Zr  0.05025083  0.12867337  0.03373825     2.26400
Zr2324     Zr  0.02697546  0.16016474  0.07249132     2.06300
Zr2325     Zr  0.07023347  0.17141336  0.00885045     2.10000
Zr2326     Zr  0.08269958  0.16369641  0.06461258     1.78800
O2327       O  0.05785070  0.17724546  0.97683347    -0.93600
O2328       O  0.08170747  0.16086156  0.09941191    -0.41400
O2329       O  0.07753640  0.14894240  0.03367495    -0.78000
O2330       O  0.05599278  0.14250085  0.06485449    -0.96700
O2331       O  0.02108766  0.14485016  0.04278455    -0.90000
O2332       O  0.04342678  0.15076118  0.00892987    -0.92800
C2333       C  0.08639586  0.21262134  0.07813965     1.00900
C2334       C  0.08435995  0.21637584  0.01375465     1.13800
C2335       C  0.02784449  0.20453302  0.09513037     1.04600
O2336       O  0.03374260  0.14688948  0.10393968    -0.95000
O2337       O  0.01492313  0.12776198  0.07433373    -0.90700
O2338       O  0.03231427  0.10801268  0.05430881    -0.83900
C2339       C  0.01949773  0.11111732  0.06733493     1.11300
O2340       O  0.99788413  0.19312309  0.00206083    -0.97000
Zr2341     Zr  0.01450764  0.16710774  0.01862834     1.88900
O2342       O  0.02549967  0.11345232  0.01545598    -0.73600
O2343       O  0.99307293  0.16610023  0.08022137    -0.52900
O2344       O  0.98180924  0.17339379  0.03028306    -0.97600
O2345       O  0.00943828  0.16186062  0.98439786    -0.54800
O2346       O  0.00023697  0.13452206  0.01763105    -0.74100
C2347       C  0.00745071  0.11738274  0.01515021     0.98200
O2348       O  0.07042538  0.10065903  0.04095590    -0.63000
O2349       O  0.10394863  0.17210931  0.99897206    -0.57800
O2350       O  0.06901851  0.11729081  0.00644084    -0.94400
O2351       O  0.08237829  0.14294021  0.99204817    -0.92900
O2352       O  0.11666074  0.16484587  0.05590871    -0.93200
O2353       O  0.10134322  0.13534392  0.07393512    -0.92000
C2354       C  0.07993817  0.12483850  0.99379356     1.17100
H2355       H  0.08948713  0.19157978  0.03913754     0.33000
H2356       H  0.05814581  0.13248169  0.07410891     0.43800
H2357       H  0.04206636  0.14425425  0.99673389     0.37400
H2358       H  0.00968120  0.19170566  0.05214310     0.33900
H2359       H  0.09536783  0.16098253  0.10335289     0.25600
H2360       H  0.98650134  0.16607107  0.06769010     0.31600
H2361       H  0.97366890  0.16508177  0.02224467     0.37500
H2362       H  0.11690476  0.16334462  0.04177632     0.31900
H2363       H  0.10389475  0.17839948  0.98631430     0.30800
H2364       H  0.06879224  0.18266005  0.96967375     0.32500
H2365       H  0.01032568  0.14777621  0.98238555     0.31500
H2366       H  0.09522991  0.12454502  0.06713522     0.35500
H2367       H  0.06981911  0.09946555  0.05507642     0.28200
H2368       H  0.02339980  0.22800420  0.02748136     0.32400
H2369       H  0.00818829  0.20198913  0.99835535     0.35300
H2370       H  0.11000946  0.18143790  0.00773071     0.27900
H2371       H  0.06324322  0.08954983  0.03599562     0.40800
H2372       H  0.04388750  0.15508289  0.10931911     0.30800
H2373       H  0.07626175  0.17328787  0.10419589     0.38400
H2374       H  0.02103331  0.16684413  0.97799400     0.30300
H2375       H  0.98879536  0.15423506  0.08649608     0.30400
H2376       H  0.04106042  0.24071638  0.03238633     0.30600
Zr2377     Zr  0.16561093  0.01255153  0.06836932     2.17500
O2378       O  0.18343391  0.98235948  0.06383920    -0.51700
O2379       O  0.14432424  0.00333057  0.09366417    -0.74900
O2380       O  0.18228829  0.00934728  0.09957096    -0.81700
O2381       O  0.14094220  0.99854636  0.02401165    -0.83500
O2382       O  0.19262374  0.03912784  0.10776526    -0.79100
O2383       O  0.14107592  0.99080338  0.05514208    -0.90700
O2384       O  0.12291274  0.02840517  0.09725418    -0.76700
O2385       O  0.15806770  0.04053293  0.08711071    -0.86200
O2386       O  0.13688821  0.02718734  0.05576273    -0.85900
O2387       O  0.19263613  0.03362107  0.06466479    -0.72600
O2388       O  0.17367888  0.02022412  0.03551730    -0.84800
Zr2389     Zr  0.16111998  0.08202853  0.03769230     2.26400
Zr2390     Zr  0.18397819  0.06182998  0.08306663     2.06300
Zr2391     Zr  0.14407714  0.03310602  0.02286180     2.10000
Zr2392     Zr  0.12934894  0.05429857  0.07494449     1.78800
O2393       O  0.15336100  0.02048364  0.99133607    -0.93600
O2394       O  0.13143858  0.07211808  0.10514872    -0.41400
O2395       O  0.13476730  0.06092435  0.04154275    -0.78000
O2396       O  0.15489177  0.07609318  0.07092275    -0.96700
O2397       O  0.19054610  0.07025178  0.05085844    -0.90000
O2398       O  0.16999732  0.05456163  0.01886915    -0.92800
C2399       C  0.12983324  0.01176711  0.10167697     1.00900
C2400       C  0.13367070  0.98981047  0.03824825     1.13800
C2401       C  0.19055661  0.02121104  0.11115679     1.04600
O2402       O  0.17324640  0.07716611  0.11295420    -0.95000
O2403       O  0.19077004  0.09559873  0.07997901    -0.90700
O2404       O  0.17619548  0.10857524  0.05387370    -0.83900
C2405       C  0.18644938  0.10975157  0.06904211     1.11300
O2406       O  0.21972630  0.01556880  0.02313692    -0.97000
Zr2407     Zr  0.19939436  0.04314874  0.03220964     1.88900
O2408       O  0.18506137  0.09208423  0.01532060    -0.73600
O2409       O  0.21783659  0.06449861  0.09122738    -0.52900
O2410       O  0.23137367  0.04173364  0.04632551    -0.97600
O2411       O  0.20538669  0.03938980  0.99785212    -0.54800
O2412       O  0.21147766  0.07573073  0.02509120    -0.74100
C2413       C  0.20313626  0.09077162  0.01801149     0.98200
O2414       O  0.13920408  0.10988393  0.03822440    -0.63000
O2415       O  0.11011541  0.02628107  0.01847242    -0.57800
O2416       O  0.14382508  0.08516379  0.00801962    -0.94400
O2417       O  0.13179986  0.05614593  0.99980549    -0.92900
O2418       O  0.09545311  0.04646824  0.07190594    -0.93200
O2419       O  0.10497292  0.07982899  0.07250977    -0.92000
C2420       C  0.13375316  0.07423269  0.99730524     1.17100
H2421       H  0.12530616  0.01992938  0.05693433     0.33000
H2422       H  0.15185595  0.08804455  0.07754458     0.43800
H2423       H  0.17156859  0.05780280  0.00553889     0.37400
H2424       H  0.20400693  0.02758872  0.07001578     0.33900
H2425       H  0.12480522  0.08462517  0.10304794     0.25600
H2426       H  0.22373844  0.07074166  0.08001078     0.31600
H2427       H  0.23544741  0.05524681  0.04713476     0.37500
H2428       H  0.09510783  0.03582762  0.06239869     0.31900
H2429       H  0.10318600  0.03827646  0.02239859     0.30800
H2430       H  0.14167047  0.02201123  0.98341307     0.32500
H2431       H  0.20283506  0.05221277  0.99232513     0.31500
H2432       H  0.10603896  0.08434621  0.05914937     0.35500
H2433       H  0.12623950  0.10451974  0.03644967     0.28200
H2434       H  0.19713196  0.98596546  0.06437621     0.32400
H2435       H  0.21059408  0.00517724  0.02042926     0.35300
H2436       H  0.10838011  0.02540520  0.00441870     0.27900
H2437       H  0.13907462  0.11453527  0.05169158     0.40800
H2438       H  0.18387459  0.07480269  0.12206560     0.30800
H2439       H  0.12293454  0.06530329  0.11412745     0.38400
H2440       H  0.19479183  0.03134834  0.99313733     0.30300
H2441       H  0.21802615  0.07438796  0.10153236     0.30400
H2442       H  0.18133839  0.97884419  0.05022986     0.30600
Zr2443     Zr  0.25660774  0.25642138  0.96819102     2.17500
O2444       O  0.28075495  0.26691856  0.94513253    -0.51700
O2445       O  0.25510280  0.29196840  0.97023601    -0.74900
O2446       O  0.24625433  0.25340922  0.93510960    -0.81700
O2447       O  0.29677386  0.23999598  0.00316842    -0.83500
O2448       O  0.21533221  0.24335560  0.93327374    -0.79100
O2449       O  0.29100296  0.24989591  0.97282917    -0.90700
O2450       O  0.23414690  0.30207495  0.99340879    -0.76700
O2451       O  0.22368845  0.26525038  0.97389571    -0.86200
O2452       O  0.25521590  0.26522407  0.00122013    -0.85900
O2453       O  0.23835340  0.22800320  0.96109632    -0.72600
O2454       O  0.26680901  0.22847931  0.98548720    -0.84800
Zr2455     Zr  0.21306576  0.21752191  0.01754949     2.26400
Zr2456     Zr  0.20513379  0.23717063  0.96688628     2.06300
Zr2457     Zr  0.26499853  0.23713484  0.01857346     2.10000
Zr2458     Zr  0.22216387  0.27323816  0.00725757     1.78800
O2459       O  0.28645110  0.21311558  0.03259854    -0.93600
O2460       O  0.19317779  0.29051610  0.99709392    -0.41400
O2461       O  0.23177784  0.24534451  0.02452361    -0.78000
O2462       O  0.20317511  0.24594172  0.00030316    -0.96700
O2463       O  0.21494243  0.20898451  0.98440677    -0.90000
O2464       O  0.24625405  0.20905170  0.01225372    -0.92800
C2465       C  0.24631912  0.30535743  0.98009893     1.00900
C2466       C  0.30250023  0.24452322  0.98620913     1.13800
C2467       C  0.23140327  0.24849463  0.92555100     1.04600
O2468       O  0.18460902  0.26389198  0.95678212    -0.95000
O2469       O  0.17292667  0.23004990  0.98090537    -0.90700
O2470       O  0.17809983  0.21974273  0.01129402    -0.83900
C2471       C  0.16671937  0.22460040  0.99751985     1.11300
O2472       O  0.27181022  0.19364621  0.95394700    -0.97000
Zr2473     Zr  0.24815742  0.20081578  0.97910398     1.88900
O2474       O  0.21653484  0.18192011  0.01778814    -0.73600
O2475       O  0.19006200  0.21407677  0.94556605    -0.52900
O2476       O  0.23523966  0.18273027  0.95222110    -0.97600
O2477       O  0.27599515  0.18262467  0.99079713    -0.54800
O2478       O  0.23463053  0.17246537  0.99205986    -0.74100
C2479       C  0.22418462  0.16888176  0.00663036     0.98200
O2480       O  0.19060933  0.20742966  0.04241012    -0.63000
O2481       O  0.27960765  0.26333691  0.03641019    -0.57800
O2482       O  0.22331029  0.22601064  0.05004321    -0.94400
O2483       O  0.25505914  0.23327405  0.05183389    -0.92900
O2484       O  0.23661951  0.29118307  0.03341086    -0.93200
O2485       O  0.20044134  0.28027791  0.03412447    -0.92000
C2486       C  0.23849955  0.23041777  0.05944427     1.17100
H2487       H  0.26346825  0.27587569  0.00397094     0.33000
H2488       H  0.19047640  0.25056377  0.00392753     0.43800
H2489       H  0.25035438  0.19858403  0.02032785     0.37400
H2490       H  0.24041570  0.22301236  0.94829958     0.33900
H2491       H  0.19362045  0.30312725  0.00374956     0.25600
H2492       H  0.20097478  0.20707702  0.93925358     0.31600
H2493       H  0.22157930  0.18071066  0.95566174     0.37500
H2494       H  0.24199608  0.28122404  0.04198895     0.31900
H2495       H  0.28754106  0.25694109  0.04629670     0.30800
H2496       H  0.29416851  0.22034656  0.04199941     0.32500
H2497       H  0.27130744  0.17553454  0.00206889     0.31500
H2498       H  0.20001942  0.26812922  0.04133107     0.35500
H2499       H  0.19819230  0.19909020  0.05108647     0.28200
H2500       H  0.27454554  0.27748694  0.93790678     0.32400
H2501       H  0.27408234  0.20615495  0.94781613     0.35300
H2502       H  0.28910852  0.26887661  0.02750774     0.27900
H2503       H  0.18737760  0.21910826  0.05011863     0.40800
H2504       H  0.17546717  0.26616158  0.96757047     0.30800
H2505       H  0.19556548  0.29349715  0.98345061     0.38400
H2506       H  0.28455247  0.19244505  0.99623862     0.30300
H2507       H  0.18431889  0.20450273  0.95415765     0.30400
H2508       H  0.28249107  0.25628641  0.93567778     0.30600
Zr2509     Zr  0.18943669  0.01968420  0.23565383     2.17500
O2510       O  0.16329782  0.01573035  0.21286694    -0.51700
O2511       O  0.18889423  0.05446152  0.23216606    -0.74900
O2512       O  0.15815443  0.02805144  0.24952242    -0.81700
O2513       O  0.22690298  0.00441674  0.19729011    -0.83500
O2514       O  0.15583977  0.01758023  0.28020319    -0.79100
O2515       O  0.19617452  0.01597426  0.20135507    -0.90700
O2516       O  0.20978857  0.06708700  0.25335323    -0.76700
O2517       O  0.19462663  0.03140588  0.26733301    -0.86200
O2518       O  0.22235858  0.02871116  0.23592136    -0.85900
O2519       O  0.18170930  0.99375237  0.25669921    -0.72600
O2520       O  0.20766779  0.99092453  0.22826335    -0.84800
Zr2521     Zr  0.23879590  0.98552717  0.28234956     2.26400
Zr2522     Zr  0.18788412  0.00544394  0.28854641     2.06300
Zr2523     Zr  0.24076578  0.99976162  0.22939150     2.10000
Zr2524     Zr  0.22741538  0.04035041  0.26763548     1.78800
O2525       O  0.25333961  0.97263287  0.21049319    -0.93600
O2526       O  0.21759859  0.06186819  0.29391279    -0.41400
O2527       O  0.24610488  0.01159771  0.26119693    -0.78000
O2528       O  0.22086435  0.01502183  0.28936272    -0.96700
O2529       O  0.20602275  0.97642355  0.28167420    -0.90000
O2530       O  0.23389656  0.97375709  0.25059642    -0.92800
C2531       C  0.19672279  0.06881744  0.24054182     1.00900
C2532       C  0.21044289  0.01016933  0.19075512     1.13800
C2533       C  0.14886448  0.02570513  0.26526188     1.04600
O2534       O  0.17389121  0.02809667  0.31187801    -0.95000
O2535       O  0.20084470  0.00184845  0.32091527    -0.90700
O2536       O  0.23177594  0.99147105  0.31631722    -0.83900
C2537       C  0.21767608  0.99719170  0.32714387     1.11300
O2538       O  0.17463451  0.95823577  0.22771769    -0.97000
Zr2539     Zr  0.20080003  0.96533147  0.24962363     1.88900
O2540       O  0.23820841  0.94992547  0.28356578    -0.73600
O2541       O  0.16817441  0.97941357  0.30011995    -0.52900
O2542       O  0.17552265  0.94685831  0.26463690    -0.97600
O2543       O  0.21379012  0.94569015  0.22324357    -0.54800
O2544       O  0.21573335  0.93737930  0.26403268    -0.74100
C2545       C  0.22927240  0.93550539  0.27625731     0.98200
O2546       O  0.26528452  0.97640833  0.30349866    -0.63000
O2547       O  0.26071322  0.02237837  0.21231227    -0.57800
O2548       O  0.27208445  0.98998840  0.27261971    -0.94400
O2549       O  0.27400278  0.99416446  0.24038580    -0.92900
O2550       O  0.25243583  0.05819019  0.25147226    -0.93200
O2551       O  0.25346708  0.04781511  0.28955942    -0.92000
C2552       C  0.28170383  0.99187472  0.25698996     1.17100
H2553       H  0.22494593  0.03836988  0.22646671     0.33000
H2554       H  0.22402358  0.02088699  0.30147443     0.43800
H2555       H  0.24228236  0.96283919  0.24773143     0.37400
H2556       H  0.16827799  0.99067865  0.25547904     0.33900
H2557       H  0.21997766  0.07496260  0.28918224     0.25600
H2558       H  0.17741225  0.96977375  0.30523535     0.31600
H2559       H  0.16443726  0.95594636  0.26609240     0.37500
H2560       H  0.26418892  0.04996425  0.25240291     0.31900
H2561       H  0.26773884  0.02927956  0.22247722     0.30800
H2562       H  0.26229502  0.97836819  0.20116660     0.32500
H2563       H  0.21044750  0.95284362  0.21150035     0.31500
H2564       H  0.25522117  0.03618904  0.29744638     0.35500
H2565       H  0.26817370  0.98802975  0.31118448     0.28200
H2566       H  0.15638508  0.02830554  0.21254004     0.32400
H2567       H  0.16820849  0.97079821  0.22534662     0.35300
H2568       H  0.27070482  0.01430901  0.20573860     0.27900
H2569       H  0.25990130  0.96727840  0.31279242     0.40800
H2570       H  0.17386255  0.04065626  0.30537155     0.30800
H2571       H  0.20339552  0.06103623  0.29450686     0.38400
H2572       H  0.20565297  0.93419735  0.22284638     0.30300
H2573       H  0.16156421  0.98484659  0.31164477     0.30400
H2574       H  0.15419756  0.00690989  0.21903506     0.30600
Zr2575     Zr  0.00788154  0.99713562  0.02258939     2.17500
O2576       O  0.03284794  0.02051760  0.02882716    -0.51700
O2577       O  0.00086801  0.99799661  0.05746076    -0.74900
O2578       O  0.99632197  0.03077568  0.02089990    -0.81700
O2579       O  0.04829949  0.95859827  0.01481589    -0.83500
O2580       O  0.96754654  0.03246735  0.00544316    -0.79100
O2581       O  0.04194625  0.98823954  0.02772854    -0.90700
O2582       O  0.98431344  0.97144785  0.06534216    -0.76700
O2583       O  0.97453156  0.99172045  0.02804461    -0.86200
O2584       O  0.00622206  0.96393375  0.03034811    -0.85900
O2585       O  0.99244778  0.00407372  0.99236717    -0.72600
O2586       O  0.02041782  0.97935802  0.99509697    -0.84800
Zr2587     Zr  0.96761470  0.94819737  0.98000384     2.26400
Zr2588     Zr  0.95863638  0.99914639  0.99828209     2.06300
Zr2589     Zr  0.01801390  0.94610342  0.00286839     2.10000
Zr2590     Zr  0.97296465  0.95837130  0.03567287     1.78800
O2591       O  0.04363134  0.93877426  0.97973956    -0.93600
O2592       O  0.94439282  0.96918479  0.05355639    -0.41400
O2593       O  0.98464703  0.93997466  0.00880157    -0.78000
O2594       O  0.95587727  0.96619180  0.00726739    -0.96700
O2595       O  0.97028326  0.98087343  0.97101931    -0.90000
O2596       O  0.00107928  0.95265639  0.97385798    -0.92800
C2597       C  0.99304824  0.98678722  0.06976105     1.00900
C2598       C  0.05348514  0.97405426  0.02341956     1.13800
C2599       C  0.98203039  0.04026118  0.01369232     1.04600
O2600       O  0.93455247  0.01039373  0.02160473    -0.95000
O2601       O  0.92746753  0.98662434  0.98712568    -0.90700
O2602       O  0.93313737  0.95611584  0.97614995    -0.83900
C2603       C  0.92170342  0.97054314  0.97998041     1.11300
O2604       O  0.02677602  0.01018425  0.95809330    -0.97000
Zr2605     Zr  0.00386688  0.98529865  0.96554594     1.88900
O2606       O  0.96966282  0.94889821  0.94520873    -0.73600
O2607       O  0.94656151  0.01929708  0.97247718    -0.52900
O2608       O  0.99234644  0.01250815  0.94692717    -0.97600
O2609       O  0.03406440  0.97342973  0.95120768    -0.54800
O2610       O  0.99296134  0.96939181  0.93637310    -0.74100
C2611       C  0.98012229  0.95697413  0.93246260     0.98200
O2612       O  0.94463077  0.92223543  0.98177386    -0.63000
O2613       O  0.03081770  0.92310594  0.02585915    -0.57800
O2614       O  0.98212713  0.91656839  0.97472819    -0.94400
O2615       O  0.01016601  0.91388065  0.99134192    -0.92900
O2616       O  0.98477324  0.93054310  0.05322347    -0.93200
O2617       O  0.94900394  0.93353617  0.03850204    -0.92000
C2618       C  0.99674741  0.90696589  0.98086850     1.17100
H2619       H  0.01383071  0.96099832  0.04151911     0.33000
H2620       H  0.94266661  0.96321715  0.01010658     0.43800
H2621       H  0.00568436  0.94427725  0.96361254     0.37400
H2622       H  0.99490086  0.01698589  0.98834084     0.33900
H2623       H  0.94526586  0.96251900  0.06599454     0.25600
H2624       H  0.94553949  0.01055262  0.96125444     0.31600
H2625       H  0.97937645  0.00887235  0.94258259     0.37500
H2626       H  0.99880776  0.92994595  0.05068011     0.31900
H2627       H  0.02117537  0.91287855  0.02664664     0.30800
H2628       H  0.05091853  0.92783662  0.98529313     0.32500
H2629       H  0.03389787  0.97827441  0.93791778     0.31500
H2630       H  0.95050677  0.92577376  0.02658730     0.35500
H2631       H  0.94575785  0.91515855  0.96940836     0.28200
H2632       H  0.02786552  0.02889583  0.03939166     0.32400
H2633       H  0.02963342  0.01623839  0.97063330     0.35300
H2634       H  0.04203770  0.91691869  0.01925507     0.27900
H2635       H  0.94971785  0.91324445  0.99149828     0.40800
H2636       H  0.94159299  0.01876183  0.03058898     0.30800
H2637       H  0.94669079  0.98282647  0.05674967     0.38400
H2638       H  0.03257670  0.95941397  0.94963321     0.30300
H2639       H  0.93305409  0.02253606  0.97609428     0.30400
H2640       H  0.03320229  0.02882317  0.01740476     0.30600
Zr2641     Zr  0.00295986  0.22409182  0.22148093     2.17500
O2642       O  0.02947114  0.20089675  0.21638217    -0.51700
O2643       O  0.00901360  0.22336686  0.18637079    -0.74900
O2644       O  0.99297380  0.19085292  0.22388075    -0.81700
O2645       O  0.03762606  0.26295444  0.23936853    -0.83500
O2646       O  0.96065319  0.18881782  0.22876969    -0.79100
O2647       O  0.03520475  0.23113416  0.23250777    -0.90700
O2648       O  0.98896043  0.24461869  0.17192464    -0.76700
O2649       O  0.97131101  0.22694170  0.20881819    -0.86200
O2650       O  0.00095001  0.25620771  0.21002985    -0.85900
O2651       O  0.98145161  0.21814297  0.24818276    -0.72600
O2652       O  0.00759629  0.24481105  0.24876611    -0.84800
Zr2653     Zr  0.95188994  0.27405108  0.25148350     2.26400
Zr2654     Zr  0.94955964  0.22182715  0.23534386     2.06300
Zr2655     Zr  0.00493041  0.27699111  0.23739580     2.10000
Zr2656     Zr  0.96920175  0.25911951  0.19766870     1.78800
O2657       O  0.02563921  0.29564931  0.25818942    -0.93600
O2658       O  0.94611856  0.24411145  0.17637991    -0.41400
O2659       O  0.97308739  0.28027662  0.22480165    -0.78000
O2660       O  0.94684335  0.25392757  0.22358623    -0.96700
O2661       O  0.95436000  0.24213805  0.26282207    -0.90000
O2662       O  0.98372667  0.27147893  0.26392506    -0.92800
C2663       C  0.00256256  0.23182115  0.17125581     1.00900
C2664       C  0.04490842  0.24583445  0.23750531     1.13800
C2665       C  0.97753803  0.18127462  0.22612584     1.04600
O2666       O  0.92883050  0.20923098  0.21039988    -0.95000
O2667       O  0.91628496  0.23336336  0.24139345    -0.90700
O2668       O  0.91826776  0.26509158  0.24874544    -0.83900
C2669       C  0.90855810  0.24993098  0.24544658     1.11300
O2670       O  0.00438037  0.21147849  0.28654730    -0.97000
Zr2671     Zr  0.98625657  0.23930178  0.27499865     1.88900
O2672       O  0.95235844  0.27995710  0.28671069    -0.73600
O2673       O  0.93670501  0.20239352  0.26105698    -0.52900
O2674       O  0.96836469  0.21911780  0.29683318    -0.97600
O2675       O  0.01665123  0.24685571  0.29026595    -0.54800
O2676       O  0.97396507  0.25996372  0.30081177    -0.74100
C2677       C  0.96136132  0.27369503  0.30163323     0.98200
O2678       O  0.92609621  0.29752056  0.25858652    -0.63000
O2679       O  0.01862799  0.29438373  0.21064615    -0.57800
O2680       O  0.95921004  0.30584720  0.24059208    -0.94400
O2681       O  0.99109517  0.30898726  0.24546880    -0.92900
O2682       O  0.98263877  0.28601023  0.18046078    -0.93200
O2683       O  0.94420912  0.28091031  0.18588899    -0.92000
C2684       C  0.97389155  0.31606662  0.24391204     1.17100
H2685       H  0.01069209  0.25858912  0.20044599     0.33000
H2686       H  0.93425683  0.25626396  0.21822417     0.43800
H2687       H  0.98629716  0.28092103  0.27375855     0.37400
H2688       H  0.98333342  0.20552952  0.25349898     0.33900
H2689       H  0.95232209  0.23177987  0.17232809     0.25600
H2690       H  0.92964786  0.19207101  0.25445917     0.31600
H2691       H  0.95472510  0.22330765  0.29558147     0.37500
H2692       H  0.98060644  0.29723648  0.18912884     0.31900
H2693       H  0.00986158  0.30563238  0.20903021     0.30800
H2694       H  0.01944174  0.29525812  0.27100366     0.32500
H2695       H  0.01359146  0.24762474  0.30414206     0.31500
H2696       H  0.94330665  0.29132991  0.19565157     0.35500
H2697       H  0.93204227  0.30776474  0.26635790     0.28200
H2698       H  0.02542281  0.19231785  0.20580759     0.32400
H2699       H  0.01412954  0.20867305  0.27640533     0.35300
H2700       H  0.03058791  0.29984853  0.21582509     0.27900
H2701       H  0.92290504  0.30365872  0.24623630     0.40800
H2702       H  0.91928693  0.20148541  0.21732757     0.30800
H2703       H  0.93538956  0.24035696  0.18487521     0.38400
H2704       H  0.01912501  0.26026709  0.28659044     0.30300
H2705       H  0.94811290  0.19582170  0.26660909     0.30400
H2706       H  0.02971113  0.19269901  0.22789439     0.30600
Zr2707     Zr  0.45735098  0.76309586  0.26639735     2.17500
O2708       O  0.45057498  0.78557401  0.29284681    -0.51700
O2709       O  0.42215216  0.76199180  0.26788892    -0.74900
O2710       O  0.45742454  0.79653881  0.25677580    -0.81700
O2711       O  0.46664617  0.72350957  0.30340754    -0.83500
O2712       O  0.46675342  0.79969876  0.22566537    -0.79100
O2713       O  0.46327681  0.75578108  0.29991594    -0.90700
O2714       O  0.40999191  0.73917460  0.24829224    -0.76700
O2715       O  0.44784995  0.76021601  0.23380372    -0.86200
O2716       O  0.44718173  0.73086766  0.26314120    -0.85900
O2717       O  0.48552079  0.77028799  0.24754342    -0.72600
O2718       O  0.48476305  0.74358326  0.27469787    -0.84800
Zr2719     Zr  0.49368627  0.71418126  0.21920489     2.26400
Zr2720     Zr  0.47590372  0.76658323  0.21463782     2.06300
Zr2721     Zr  0.47459245  0.71126353  0.27096957     2.10000
Zr2722     Zr  0.43820743  0.72774744  0.23030130     1.78800
O2723       O  0.49828129  0.69826792  0.29313714    -0.93600
O2724       O  0.41839188  0.74568173  0.20768231    -0.41400
O2725       O  0.46548367  0.70770439  0.23806882    -0.78000
O2726       O  0.46596500  0.73391804  0.21082606    -0.96700
O2727       O  0.50350951  0.74664575  0.22250423    -0.90000
O2728       O  0.50277636  0.71736165  0.25194635    -0.92800
C2729       C  0.40801424  0.75253639  0.26099164     1.00900
C2730       C  0.46472057  0.74069959  0.31028392     1.13800
C2731       C  0.46107287  0.80676630  0.24204967     1.04600
O2732       O  0.44987203  0.77527496  0.19301344    -0.95000
O2733       O  0.48679213  0.75483377  0.18246425    -0.90700
O2734       O  0.49354446  0.72290292  0.18523621    -0.83900
C2735       C  0.49150259  0.73818782  0.17519851     1.11300
O2736       O  0.51843801  0.77715812  0.27640424    -0.97000
Zr2737     Zr  0.51238896  0.74985690  0.25533833     1.88900
O2738       O  0.52929050  0.71284149  0.22014742    -0.73600
O2739       O  0.49839131  0.78994993  0.20241350    -0.52900
O2740       O  0.53395619  0.77258279  0.24058077    -0.97600
O2741       O  0.52900782  0.73933094  0.28414287    -0.54800
O2742       O  0.54047471  0.73224723  0.24368467    -0.74100
C2743       C  0.54308341  0.72002002  0.23005069     0.98200
O2744       O  0.50102846  0.68708907  0.19760921    -0.63000
O2745       O  0.44846548  0.69095132  0.28141684    -0.57800
O2746       O  0.48653637  0.68108822  0.22795835    -0.94400
O2747       O  0.48183419  0.67854981  0.26011299    -0.92900
O2748       O  0.41997980  0.69934868  0.23804530    -0.93200
O2749       O  0.43293272  0.70727443  0.20233242    -0.92000
C2750       C  0.48376832  0.67123879  0.24322228     1.17100
H2751       H  0.43677934  0.72799605  0.27183981     0.33000
H2752       H  0.46191967  0.73161698  0.19781845     0.43800
H2753       H  0.51299754  0.70836126  0.25514055     0.37400
H2754       H  0.48978237  0.78317463  0.24995664     0.33900
H2755       H  0.40660410  0.73806539  0.20626293     0.25600
H2756       H  0.50936011  0.78221659  0.19712143     0.31600
H2757       H  0.52530989  0.78193031  0.23414360     0.37500
H2758       H  0.40785420  0.70073852  0.23076125     0.31900
H2759       H  0.44438167  0.68409443  0.26966450     0.30800
H2760       H  0.49079297  0.69012168  0.30188116     0.32500
H2761       H  0.53011953  0.72518687  0.28279885     0.31500
H2762       H  0.44371065  0.69773253  0.20249631     0.35500
H2763       H  0.48986026  0.68616380  0.18891896     0.28200
H2764       H  0.43885243  0.79293979  0.28916329     0.32400
H2765       H  0.50677259  0.77835250  0.28462390     0.35300
H2766       H  0.45475438  0.68092073  0.28929463     0.27900
H2767       H  0.51185285  0.69109747  0.18935647     0.40800
H2768       H  0.45632337  0.78118441  0.18191071     0.30800
H2769       H  0.41402487  0.75743933  0.21470625     0.38400
H2770       H  0.51954300  0.74148130  0.29467891     0.30300
H2771       H  0.49196762  0.79544608  0.19103518     0.30400
H2772       H  0.46107481  0.79497642  0.29272679     0.30600
Zr2773     Zr  0.99111676  0.52454290  0.50498414     2.17500
O2774       O  0.00274115  0.54854771  0.52768248    -0.51700
O2775       O  0.02687284  0.52411192  0.50266392    -0.74900
O2776       O  0.98894728  0.51358478  0.53837432    -0.81700
O2777       O  0.97389593  0.56361750  0.46874584    -0.83500
O2778       O  0.98152277  0.48193243  0.53886249    -0.79100
O2779       O  0.98299430  0.55868200  0.49954828    -0.90700
O2780       O  0.03779092  0.50398758  0.47915456    -0.76700
O2781       O  0.00060046  0.49184032  0.49916940    -0.86200
O2782       O  0.00004645  0.52295628  0.47192494    -0.85900
O2783       O  0.96295048  0.50579384  0.51212830    -0.72600
O2784       O  0.96287022  0.53355978  0.48716010    -0.84800
Zr2785     Zr  0.95353123  0.48003451  0.45497379     2.26400
Zr2786     Zr  0.97268474  0.47298801  0.50593358     2.06300
Zr2787     Zr  0.97179775  0.53171549  0.45404660     2.10000
Zr2788     Zr  0.00914195  0.49023461  0.46596758     1.78800
O2789       O  0.94603211  0.55084298  0.43971753    -0.93600
O2790       O  0.02864083  0.46262171  0.47593927    -0.41400
O2791       O  0.98114771  0.49902180  0.44832141    -0.78000
O2792       O  0.98205398  0.47079174  0.47272167    -0.96700
O2793       O  0.94443458  0.48167924  0.48797420    -0.90000
O2794       O  0.94398210  0.51277869  0.46042059    -0.92800
C2795       C  0.04067806  0.51600259  0.49273998     1.00900
C2796       C  0.97775696  0.56976887  0.48572693     1.13800
C2797       C  0.98577522  0.49782290  0.54728241     1.04600
O2798       O  0.99620236  0.44960383  0.51769942    -0.95000
O2799       O  0.96578437  0.44092756  0.49292878    -0.90700
O2800       O  0.95530874  0.44575274  0.46253815    -0.83900
C2801       C  0.95999936  0.43473535  0.47651024     1.11300
O2802       O  0.92878824  0.53587930  0.52076131    -0.97000
Zr2803     Zr  0.93534407  0.51444912  0.49354079     1.88900
O2804       O  0.91778904  0.48226838  0.45388002    -0.73600
O2805       O  0.94603406  0.46157405  0.52544334    -0.52900
O2806       O  0.91611040  0.49948047  0.51837147    -0.97600
O2807       O  0.91707564  0.54306905  0.48423331    -0.54800
O2808       O  0.90713777  0.50199824  0.47787711    -0.74100
C2809       C  0.90409357  0.49072446  0.46362602     0.98200
O2810       O  0.94546052  0.45928027  0.42789192    -0.63000
O2811       O  0.99650543  0.54842892  0.43611178    -0.57800
O2812       O  0.96175101  0.48911209  0.42211793    -0.94400
O2813       O  0.96987632  0.52051234  0.42073620    -0.92900
O2814       O  0.02610056  0.50396828  0.43889070    -0.93200
O2815       O  0.01501415  0.46704453  0.44008712    -0.92000
C2816       C  0.96663566  0.50413021  0.41279583     1.17100
H2817       H  0.01047744  0.53146346  0.46916799     0.33000
H2818       H  0.98672609  0.45805535  0.46936219     0.43800
H2819       H  0.93344220  0.51660554  0.45225456     0.37400
H2820       H  0.95833297  0.50753285  0.52511378     0.33900
H2821       H  0.04183949  0.46740554  0.47767136     0.25600
H2822       H  0.94753700  0.44740990  0.52536480     0.31600
H2823       H  0.90274543  0.50413104  0.51615482     0.37500
H2824       H  0.01605956  0.51126086  0.43186359     0.31900
H2825       H  0.98940269  0.55872873  0.42930086     0.30800
H2826       H  0.95234946  0.55782137  0.42919339     0.32500
H2827       H  0.91081173  0.53956393  0.47202041     0.31500
H2828       H  0.00201643  0.46338174  0.43581609     0.35500
H2829       H  0.95696537  0.45091118  0.42553853     0.28200
H2830       H  0.01350918  0.54222693  0.53457974     0.32400
H2831       H  0.93942867  0.54511557  0.52052780     0.35300
H2832       H  0.00413731  0.55533112  0.44582274     0.27900
H2833       H  0.93540303  0.45059569  0.43258965     0.40800
H2834       H  0.99049940  0.44477969  0.52972477     0.30800
H2835       H  0.02408266  0.45983254  0.48907235     0.38400
H2836       H  0.92697735  0.55236932  0.48051169     0.30300
H2837       H  0.94893127  0.46545297  0.53878631     0.30400
H2838       H  0.99241849  0.55036476  0.53744814     0.30600
Zr2839     Zr  0.50878160  0.52255461  0.02732394     2.17500
O2840       O  0.51733280  0.54602968  0.05189374    -0.51700
O2841       O  0.54382896  0.51850826  0.02558527    -0.74900
O2842       O  0.51284069  0.50825515  0.05874659    -0.81700
O2843       O  0.49366066  0.56446472  0.99448439    -0.83500
O2844       O  0.50051533  0.47827849  0.05939797    -0.79100
O2845       O  0.50641175  0.55749595  0.02353538    -0.90700
O2846       O  0.55201200  0.49721573  0.00199097    -0.76700
O2847       O  0.51526601  0.48963692  0.01993896    -0.86200
O2848       O  0.51613090  0.52172434  0.99384468    -0.85900
O2849       O  0.48010020  0.50572374  0.03633106    -0.72600
O2850       O  0.48047149  0.53469766  0.01168017    -0.84800
Zr2851     Zr  0.46513661  0.48329756  0.97849889     2.26400
Zr2852     Zr  0.48651524  0.47265118  0.02770489     2.06300
Zr2853     Zr  0.48752339  0.53344793  0.97809474     2.10000
Zr2854     Zr  0.52220562  0.48857693  0.98658815     1.78800
O2855       O  0.46407607  0.55657399  0.96575084    -0.93600
O2856       O  0.53645599  0.45791573  0.99624398    -0.41400
O2857       O  0.49396859  0.50028357  0.97046499    -0.78000
O2858       O  0.49393141  0.47109018  0.99390652    -0.96700
O2859       O  0.45795367  0.48432763  0.01203405    -0.90000
O2860       O  0.45890607  0.51640612  0.98605370    -0.92800
C2861       C  0.55630034  0.50836814  0.01597443     1.00900
C2862       C  0.50057360  0.56960791  0.01089077     1.13800
C2863       C  0.50927443  0.49243328  0.06717204     1.04600
O2864       O  0.50700474  0.44603027  0.03817722    -0.95000
O2865       O  0.47688651  0.44178385  0.01408931    -0.90700
O2866       O  0.46509848  0.44835532  0.98448460    -0.83900
C2867       C  0.46997996  0.43655061  0.99782776     1.11300
O2868       O  0.45019283  0.54033972  0.04633569    -0.97000
Zr2869     Zr  0.45227264  0.51746505  0.01969129     1.88900
O2870       O  0.42982179  0.48970244  0.97991394    -0.73600
O2871       O  0.45985043  0.46394996  0.04854778    -0.52900
O2872       O  0.43416399  0.50408494  0.04623820    -0.97600
O2873       O  0.43391700  0.54653666  0.01188368    -0.54800
O2874       O  0.42219730  0.50805380  0.00602245    -0.74100
C2875       C  0.41752160  0.49859500  0.99103357     0.98200
O2876       O  0.45216341  0.46478170  0.95176802    -0.63000
O2877       O  0.51348501  0.54720098  0.95943887    -0.57800
O2878       O  0.47070415  0.49316188  0.94533956    -0.94400
O2879       O  0.47900739  0.52458571  0.94480372    -0.92900
O2880       O  0.54227975  0.50065268  0.96081191    -0.93200
O2881       O  0.52754093  0.46726657  0.95903638    -0.92000
C2882       C  0.47441241  0.50873522  0.93638844     1.17100
H2883       H  0.52711474  0.52950019  0.99098216     0.33000
H2884       H  0.49743218  0.45824150  0.98973902     0.43800
H2885       H  0.44825190  0.52148349  0.97872568     0.37400
H2886       H  0.47741412  0.50710286  0.04988498     0.33900
H2887       H  0.54999825  0.45826068  0.99174558     0.25600
H2888       H  0.45955969  0.44975568  0.04786990     0.31600
H2889       H  0.43053916  0.49113486  0.04174150     0.37500
H2890       H  0.53916979  0.51456006  0.96028103     0.31900
H2891       H  0.51422599  0.53939453  0.94749829     0.30800
H2892       H  0.45617669  0.56053820  0.97703964     0.32500
H2893       H  0.42963798  0.54468864  0.99849725     0.31500
H2894       H  0.51553380  0.45993853  0.95793967     0.35500
H2895       H  0.46171064  0.45436174  0.94888162     0.28200
H2896       H  0.52941493  0.54108371  0.05766909     0.32400
H2897       H  0.46175433  0.54829948  0.04493381     0.35300
H2898       H  0.50827947  0.55983804  0.95535936     0.27900
H2899       H  0.44077529  0.45823118  0.95697281     0.40800
H2900       H  0.49967982  0.44006848  0.04870557     0.30800
H2901       H  0.53730417  0.45875111  0.01038985     0.38400
H2902       H  0.44362789  0.55670114  0.01109862     0.30300
H2903       H  0.46423823  0.46683756  0.06171528     0.30400
H2904       H  0.50743810  0.54504557  0.06211475     0.30600
Zr2905     Zr  0.45762873  0.98534028  0.45302031     2.17500
O2906       O  0.45731624  0.96187985  0.42676658    -0.51700
O2907       O  0.42238176  0.98493139  0.45281896    -0.74900
O2908       O  0.45990800  0.95186310  0.46410754    -0.81700
O2909       O  0.46519094  0.02488412  0.41514133    -0.83500
O2910       O  0.46798493  0.95131919  0.49569289    -0.79100
O2911       O  0.45351424  0.99495317  0.41943195    -0.90700
O2912       O  0.41026449  0.01038172  0.46985979    -0.76700
O2913       O  0.44701181  0.99037816  0.48542137    -0.86200
O2914       O  0.44732613  0.01806048  0.45493490    -0.85900
O2915       O  0.48561961  0.97940917  0.47258366    -0.72600
O2916       O  0.48512083  0.00391380  0.44409012    -0.84800
Zr2917     Zr  0.49149066  0.03626990  0.49922067     2.26400
Zr2918     Zr  0.47484318  0.98466503  0.50518752     2.06300
Zr2919     Zr  0.47452480  0.03675006  0.44671004     2.10000
Zr2920     Zr  0.43701359  0.02336531  0.48713895     1.78800
O2921       O  0.50047014  0.04704019  0.42583193    -0.93600
O2922       O  0.41568246  0.01064398  0.51158207    -0.41400
O2923       O  0.46412844  0.04224116  0.47914570    -0.78000
O2924       O  0.46380128  0.01742360  0.50764348    -0.96700
O2925       O  0.50222175  0.00358879  0.49710263    -0.90000
O2926       O  0.50215525  0.03157927  0.46676844    -0.92800
C2927       C  0.40835491  0.99602848  0.45848558     1.00900
C2928       C  0.45727114  0.00954481  0.40894113     1.13800
C2929       C  0.46374502  0.94287154  0.47975272     1.04600
O2930       O  0.44959667  0.97538247  0.52740126    -0.95000
O2931       O  0.48301918  0.99813597  0.53713123    -0.90700
O2932       O  0.48796168  0.03012487  0.53367569    -0.83900
C2933       C  0.48607528  0.01509461  0.54407355     1.11300
O2934       O  0.52096459  0.97212402  0.44302807    -0.97000
Zr2935     Zr  0.51236478  0.99876111  0.46458296     1.88900
O2936       O  0.52709360  0.03529825  0.50085042    -0.73600
O2937       O  0.49858119  0.96194978  0.51786538    -0.52900
O2938       O  0.53180365  0.97357328  0.47942495    -0.97600
O2939       O  0.53115719  0.00961125  0.43727749    -0.54800
O2940       O  0.53968146  0.01422726  0.47889015    -0.74100
C2941       C  0.54145487  0.02654904  0.49246437     0.98200
O2942       O  0.50161671  0.06200917  0.52073640    -0.63000
O2943       O  0.45060031  0.05877413  0.43315493    -0.57800
O2944       O  0.48174519  0.06863372  0.48833279    -0.94400
O2945       O  0.47721407  0.07006476  0.45613633    -0.92900
O2946       O  0.41825559  0.05028230  0.47460740    -0.93200
O2947       O  0.43046613  0.04821790  0.51132144    -0.92000
C2948       C  0.47812920  0.07788804  0.47278301     1.17100
H2949       H  0.43700221  0.02067798  0.44608304     0.33000
H2950       H  0.45861542  0.02025805  0.52024387     0.43800
H2951       H  0.51236580  0.04020106  0.46354163     0.37400
H2952       H  0.49057687  0.96646182  0.47087132     0.33900
H2953       H  0.40369409  0.01852378  0.51062612     0.25600
H2954       H  0.50982300  0.96286134  0.50915308     0.31600
H2955       H  0.54526557  0.97629667  0.47576470     0.37500
H2956       H  0.42785623  0.05846797  0.46831444     0.31900
H2957       H  0.45641356  0.06318782  0.42101880     0.30800
H2958       H  0.49390233  0.05430606  0.41556597     0.32500
H2959       H  0.53638532  0.02211108  0.44134122     0.31500
H2960       H  0.44303330  0.05434703  0.51337862     0.35500
H2961       H  0.50965667  0.07049775  0.51284920     0.28200
H2962       H  0.44741903  0.95244315  0.43014771     0.32400
H2963       H  0.51359512  0.97464966  0.43119178     0.35300
H2964       H  0.43974814  0.05072287  0.42911687     0.27900
H2965       H  0.48985740  0.06974199  0.52388500     0.40800
H2966       H  0.45553871  0.96491145  0.53497189     0.30800
H2967       H  0.41211193  0.99781392  0.50669157     0.38400
H2968       H  0.52148319  0.01291642  0.42743489     0.30300
H2969       H  0.50295433  0.96757832  0.53012625     0.30400
H2970       H  0.46978260  0.95476933  0.42746792     0.30600
Zr2971     Zr  0.68927911  0.22768590  0.51253719     2.17500
O2972       O  0.67037969  0.21289074  0.53790914    -0.51700
O2973       O  0.69084777  0.19267039  0.50747590    -0.74900
O2974       O  0.65521366  0.23033947  0.50576725    -0.81700
O2975       O  0.72444152  0.24588475  0.55070280    -0.83500
O2976       O  0.65039950  0.24091354  0.47548341    -0.79100
O2977       O  0.69456254  0.23412359  0.54629586    -0.90700
O2978       O  0.71331520  0.18412830  0.48511408    -0.76700
O2979       O  0.69334665  0.22008061  0.47948162    -0.86200
O2980       O  0.72283099  0.22029333  0.50904300    -0.85900
O2981       O  0.67899456  0.25667413  0.49647990    -0.72600
O2982       O  0.70597414  0.25604797  0.52193719    -0.84800
Zr2983     Zr  0.73329735  0.26932765  0.46675551     2.26400
Zr2984     Zr  0.68264012  0.24852064  0.46324610     2.06300
Zr2985     Zr  0.73929586  0.24894177  0.51830908     2.10000
Zr2986     Zr  0.72718406  0.21367924  0.47559805     1.78800
O2987       O  0.75494463  0.27296054  0.53816548    -0.93600
O2988       O  0.72079672  0.19663017  0.44567205    -0.41400
O2989       O  0.74341021  0.24183767  0.48477602    -0.78000
O2990       O  0.71629471  0.24079679  0.45786681    -0.96700
O2991       O  0.69994365  0.27679737  0.47163136    -0.90000
O2992       O  0.73025353  0.27710445  0.50033277    -0.92800
C2993       C  0.70008331  0.18009900  0.49709337     1.00900
C2994       C  0.70783775  0.24063053  0.55709001     1.13800
C2995       C  0.64422997  0.23558566  0.49201895     1.04600
O2996       O  0.66930287  0.22483767  0.44140658    -0.95000
O2997       O  0.69202997  0.25676477  0.43084155    -0.90700
O2998       O  0.72210249  0.26915211  0.43297213    -0.83900
C2999       C  0.70719323  0.26388166  0.42336727     1.11300
O3000       O  0.67616345  0.28730776  0.53323409    -0.97000
Zr3001     Zr  0.69684716  0.28418783  0.50494670     1.88900
O3002       O  0.73191109  0.30437326  0.47148085    -0.73600
O3003       O  0.66145535  0.27468207  0.45291737    -0.52900
O3004       O  0.66671337  0.30197821  0.50025977    -0.97600
O3005       O  0.71198322  0.30461368  0.52885747    -0.54800
O3006       O  0.70337134  0.31184331  0.48593330    -0.74100
C3007       C  0.71886587  0.31647388  0.47743759     0.98200
O3008       O  0.75549666  0.28026405  0.44205578    -0.63000
O3009       O  0.75860810  0.22369955  0.53319527    -0.57800
O3010       O  0.76754274  0.26211593  0.47399695    -0.94400
O3011       O  0.77165384  0.25388325  0.50524770    -0.92900
O3012       O  0.75408618  0.19601509  0.48972699    -0.93200
O3013       O  0.75511387  0.21142080  0.45426371    -0.92000
C3014       C  0.77826498  0.25768354  0.48843910     1.17100
H3015       H  0.72659166  0.20946396  0.51680346     0.33000
H3016       H  0.71882853  0.23688038  0.44477601     0.43800
H3017       H  0.73823405  0.28776158  0.50381362     0.37400
H3018       H  0.66623482  0.26131564  0.49982365     0.33900
H3019       H  0.72889775  0.18477447  0.44616743     0.25600
H3020       H  0.65346840  0.26893449  0.44274636     0.31600
H3021       H  0.66884047  0.31478194  0.50609616     0.37500
H3022       H  0.75255856  0.18255859  0.48538212     0.31900
H3023       H  0.76648436  0.21803596  0.52258994     0.30800
H3024       H  0.74705809  0.27422943  0.55000542     0.32500
H3025       H  0.71997463  0.31358719  0.52150816     0.31500
H3026       H  0.75406882  0.22294617  0.44612723     0.35500
H3027       H  0.76452914  0.28886551  0.44868806     0.28200
H3028       H  0.66402072  0.20181746  0.53183192     0.32400
H3029       H  0.68342552  0.28086678  0.54359031     0.35300
H3030       H  0.76792488  0.23066025  0.54122752     0.27900
H3031       H  0.76338071  0.26883518  0.43816092     0.40800
H3032       H  0.67351248  0.21226210  0.44655924     0.30800
H3033       H  0.70744056  0.19212372  0.44704271     0.38400
H3034       H  0.72134680  0.29609593  0.53542636     0.30300
H3035       H  0.65242673  0.27706407  0.46378188     0.30400
H3036       H  0.65967846  0.22206122  0.54102605     0.30600
Zr3037     Zr  0.75689396  0.97347633  0.75860916     2.17500
O3038       O  0.77943495  0.96182338  0.78274844    -0.51700
O3039       O  0.75545302  0.93836362  0.75305947    -0.74900
O3040       O  0.74232442  0.97246863  0.79114108    -0.81700
O3041       O  0.79859079  0.98951149  0.72509184    -0.83500
O3042       O  0.71166840  0.98482847  0.79121350    -0.79100
O3043       O  0.79218184  0.97783847  0.75474436    -0.90700
O3044       O  0.73611183  0.93180370  0.72777467    -0.76700
O3045       O  0.72428846  0.96716687  0.75029481    -0.86200
O3046       O  0.75694672  0.96773988  0.72476407    -0.85900
O3047       O  0.73846399  0.00211408  0.76734616    -0.72600
O3048       O  0.76774055  0.00242111  0.74385433    -0.84800
Zr3049     Zr  0.71540268  0.01874536  0.71042228     2.26400
Zr3050     Zr  0.70573974  0.99562037  0.75885825     2.06300
Zr3051     Zr  0.76745148  0.99676060  0.71004733     2.10000
Zr3052     Zr  0.72429965  0.96209202  0.71638014     1.78800
O3053       O  0.78992006  0.02090128  0.69937801    -0.93600
O3054       O  0.69512582  0.94450356  0.72322794    -0.41400
O3055       O  0.73465270  0.99085429  0.70206187    -0.78000
O3056       O  0.70474635  0.98944640  0.72497423    -0.96700
O3057       O  0.71598801  0.02463834  0.74411451    -0.90000
O3058       O  0.74833796  0.02512563  0.71801669    -0.92800
C3059       C  0.74732793  0.92670957  0.74126149     1.00900
C3060       C  0.80404368  0.98323207  0.74153382     1.13800
C3061       C  0.72634033  0.97742127  0.79961782     1.04600
O3062       O  0.68157386  0.97236356  0.76752751    -0.95000
O3063       O  0.67444543  0.00596127  0.74679736    -0.90700
O3064       O  0.68008852  0.01750000  0.71689906    -0.83900
C3065       C  0.66866408  0.01274438  0.73075561     1.11300
O3066       O  0.77186746  0.03515358  0.77741235    -0.97000
Zr3067     Zr  0.74875453  0.03047489  0.75181287     1.88900
O3068       O  0.71890965  0.05410994  0.71369651    -0.73600
O3069       O  0.69377989  0.02060704  0.78089297    -0.52900
O3070       O  0.73446276  0.04430961  0.78101085    -0.97600
O3071       O  0.77727373  0.04835719  0.74323289    -0.54800
O3072       O  0.73536148  0.06063931  0.74093205    -0.74100
C3073       C  0.72573653  0.06588717  0.72627439     0.98200
O3074       O  0.69368822  0.03183908  0.68627613    -0.63000
O3075       O  0.78290351  0.97216072  0.68965908    -0.57800
O3076       O  0.72724620  0.01190958  0.67732529    -0.94400
O3077       O  0.75899335  0.00287091  0.67676105    -0.92900
O3078       O  0.74003276  0.94905533  0.68757608    -0.93200
O3079       O  0.70409132  0.95745976  0.68838967    -0.92000
C3080       C  0.74305659  0.00707711  0.66840590     1.17100
H3081       H  0.76532679  0.95700954  0.72125150     0.33000
H3082       H  0.69210200  0.98574597  0.72092380     0.43800
H3083       H  0.75285612  0.03612567  0.71114025     0.37400
H3084       H  0.73962132  0.00529053  0.78076830     0.33900
H3085       H  0.69833374  0.93097358  0.71979501     0.25600
H3086       H  0.68780894  0.03055203  0.77268074     0.31600
H3087       H  0.72712224  0.05586449  0.77691139     0.37500
H3088       H  0.74096876  0.93502506  0.68958970     0.31900
H3089       H  0.79285727  0.97908851  0.68241979     0.30800
H3090       H  0.78194551  0.03076808  0.69287261     0.32500
H3091       H  0.77293776  0.05762151  0.73342902     0.31500
H3092       H  0.69736639  0.96999483  0.68668256     0.35500
H3093       H  0.70151577  0.04075730  0.67867530     0.28200
H3094       H  0.77326108  0.95065133  0.78869626     0.32400
H3095       H  0.77281828  0.02254500  0.78379234     0.35300
H3096       H  0.79032796  0.96376927  0.69840770     0.27900
H3097       H  0.69102246  0.02102654  0.67741028     0.40800
H3098       H  0.67281359  0.97936143  0.77658095     0.30800
H3099       H  0.69403454  0.94461407  0.73738713     0.38400
H3100       H  0.78558009  0.03897913  0.73608267     0.30300
H3101       H  0.68279113  0.01477605  0.78762818     0.30400
H3102       H  0.77946365  0.97184694  0.79293581     0.30600
Zr3103     Zr  0.02803049  0.71385511  0.72686612     2.17500
O3104       O  0.05354551  0.69253419  0.71405937    -0.51700
O3105       O  0.02849749  0.71735479  0.69177762    -0.74900
O3106       O  0.01917413  0.68029150  0.72711633    -0.81700
O3107       O  0.06547835  0.74977652  0.74572428    -0.83500
O3108       O  0.98820953  0.67730071  0.73730071    -0.79100
O3109       O  0.06113427  0.71886122  0.73621367    -0.90700
O3110       O  0.00503719  0.73872497  0.68360309    -0.76700
O3111       O  0.99491274  0.71846640  0.71929078    -0.86200
O3112       O  0.02497571  0.74728249  0.72009577    -0.85900
O3113       O  0.01041628  0.70434103  0.75502775    -0.72600
O3114       O  0.03637813  0.73095173  0.75537565    -0.84800
Zr3115     Zr  0.98224125  0.75965091  0.77005431     2.26400
Zr3116     Zr  0.97707291  0.70963715  0.74745433     2.06300
Zr3117     Zr  0.03302958  0.76436710  0.74902478     2.10000
Zr3118     Zr  0.99166759  0.75202134  0.71322996     1.78800
O3119       O  0.05626352  0.77825380  0.77088054    -0.93600
O3120       O  0.96417264  0.74110141  0.69484415    -0.41400
O3121       O  0.99957966  0.76941046  0.74193001    -0.78000
O3122       O  0.97320855  0.74333668  0.74088754    -0.96700
O3123       O  0.98579921  0.72625637  0.77646760    -0.90000
O3124       O  0.01550214  0.75513059  0.77721017    -0.92800
C3125       C  0.01862141  0.72667417  0.67926091     1.00900
C3126       C  0.07178986  0.73261002  0.74186695     1.13800
C3127       C  0.00446454  0.67024440  0.73120415     1.04600
O3128       O  0.95419116  0.70044872  0.72284396    -0.95000
O3129       O  0.94487404  0.72086158  0.75831197    -0.90700
O3130       O  0.94865896  0.74994672  0.77288672    -0.83900
C3131       C  0.93823401  0.73591426  0.76729965     1.11300
O3132       O  0.04315897  0.69610673  0.78761938    -0.97000
Zr3133     Zr  0.01915473  0.72158504  0.78308176     1.88900
O3134       O  0.98605235  0.75872227  0.80497571    -0.73600
O3135       O  0.96675968  0.68528406  0.76989313    -0.52900
O3136       O  0.00647582  0.69362599  0.79918766    -0.97600
O3137       O  0.04804188  0.73103993  0.80012354    -0.54800
O3138       O  0.00649225  0.73418494  0.81258999    -0.74100
C3139       C  0.99507027  0.74807610  0.81706067     0.98200
O3140       O  0.95547172  0.78218531  0.77648866    -0.63000
O3141       O  0.04445732  0.78457930  0.72320432    -0.57800
O3142       O  0.99146577  0.79334066  0.77104006    -0.94400
O3143       O  0.02153807  0.79670595  0.75858629    -0.92900
O3144       O  0.00448587  0.78027488  0.69777583    -0.93200
O3145       O  0.96816284  0.77750240  0.70674367    -0.92000
C3146       C  0.00588322  0.80354384  0.76624377     1.17100
H3147       H  0.03321653  0.75081059  0.70955266     0.33000
H3148       H  0.95998326  0.74648187  0.73789365     0.43800
H3149       H  0.01927185  0.76279219  0.78812294     0.37400
H3150       H  0.01310976  0.69130827  0.75882480     0.33900
H3151       H  0.96759673  0.72773422  0.69096677     0.25600
H3152       H  0.96744342  0.69152540  0.78268097     0.31600
H3153       H  0.99590757  0.69864633  0.80755830     0.37500
H3154       H  0.01567238  0.77550327  0.69009117     0.31900
H3155       H  0.04816880  0.79667965  0.72963180     0.30800
H3156       H  0.05018385  0.77770175  0.78373391     0.32500
H3157       H  0.04341472  0.73857521  0.81142424     0.31500
H3158       H  0.96091513  0.77927832  0.71893461     0.35500
H3159       H  0.95917524  0.78981434  0.78789744     0.28200
H3160       H  0.04767496  0.68518188  0.70345482     0.32400
H3161       H  0.05061084  0.69567193  0.77546124     0.35300
H3162       H  0.05683676  0.77853256  0.71901104     0.27900
H3163       H  0.95535757  0.79133312  0.76572257     0.40800
H3164       H  0.95725490  0.68683031  0.71968726     0.30800
H3165       H  0.95362586  0.73977343  0.70432842     0.38400
H3166       H  0.05409126  0.74060098  0.79173257     0.30300
H3167       H  0.95281675  0.68389208  0.76754793     0.30400
H3168       H  0.05612744  0.68292228  0.72413402     0.30600
C3169       C  0.21872635  0.12013093  0.03029385    -0.21700
C3170       C  0.21372923  0.10856171  0.01450036    -0.09800
C3171       C  0.21324632  0.11678573  0.99623625     0.29100
C3172       C  0.21706985  0.13626510  0.99394956    -0.21700
C3173       C  0.22068709  0.14820235  0.00989039    -0.09800
C3174       C  0.22188286  0.13986977  0.02811495     0.29100
F3175       F  0.22595370  0.15076096  0.04375831    -0.20300
H3176       H  0.21888570  0.11413776  0.04453666     0.17500
H3177       H  0.21633283  0.14226302  0.97970285     0.17500
F3178       F  0.20797573  0.10620743  0.98075047    -0.20300
C3179       C  0.21415262  0.02340962  0.13811982    -0.21700
C3180       C  0.19782549  0.01467960  0.13021781    -0.09800
C3181       C  0.18714540  0.00244583  0.14198939     0.29100
C3182       C  0.19161773  0.00065076  0.16157404    -0.21700
C3183       C  0.20738865  0.01017964  0.16960161    -0.09800
C3184       C  0.21910781  0.02092477  0.15743842     0.29100
F3185       F  0.23459342  0.03012758  0.16451419    -0.20300
H3186       H  0.22275582  0.03281036  0.12943075     0.17500
H3187       H  0.18250865  0.99207386  0.17061195     0.17500
F3188       F  0.17171437  0.99316322  0.13492878    -0.20300
C3189       C  0.08857031  0.97081061  0.01447548    -0.21700
C3190       C  0.07430911  0.97582518  0.02819301    -0.09800
C3191       C  0.08019329  0.98321473  0.04601968     0.29100
C3192       C  0.09982827  0.98576523  0.04984462    -0.21700
C3193       C  0.11405581  0.98175990  0.03576259    -0.09800
C3194       C  0.10814823  0.97413391  0.01800151     0.29100
F3195       F  0.12121590  0.97061048  0.00375781    -0.20300
H3196       H  0.08444235  0.96522167  0.00058125     0.17500
H3197       H  0.10377539  0.99219197  0.06341932     0.17500
F3198       F  0.06693347  0.98829572  0.05965025    -0.20300
C3199       C  0.11112735  0.11682764  0.97795313    -0.21700
C3200       C  0.09218992  0.11150436  0.98221763    -0.09800
C3201       C  0.08764310  0.09192514  0.98121948     0.29100
C3202       C  0.10245758  0.07808240  0.98156859    -0.21700
C3203       C  0.12158504  0.08397138  0.98301625    -0.09800
C3204       C  0.12589651  0.10291227  0.97796704     0.29100
F3205       F  0.14447028  0.10855686  0.97694503    -0.20300
H3206       H  0.11495873  0.13181456  0.97765302     0.17500
H3207       H  0.09876102  0.06332749  0.98430262     0.17500
F3208       F  0.06916007  0.08627710  0.98323588    -0.20300
C3209       C  0.11787187  0.22417963  0.02439974    -0.21700
C3210       C  0.10438530  0.22333655  0.00951505    -0.09800
C3211       C  0.11158930  0.22420885  0.99049718     0.29100
C3212       C  0.13159243  0.22511650  0.98667121    -0.21700
C3213       C  0.14518193  0.22473716  0.00159776    -0.09800
C3214       C  0.13784027  0.22474110  0.02062603     0.29100
F3215       F  0.14993404  0.22492659  0.03580161    -0.20300
H3216       H  0.11301270  0.22302194  0.03909135     0.17500
H3217       H  0.13646961  0.22540000  0.97189867     0.17500
F3218       F  0.09931339  0.22338081  0.97547586    -0.20300
C3219       C  0.98757452  0.09212580  0.02998757    -0.21700
C3220       C  0.99491979  0.10046804  0.01324737    -0.09800
C3221       C  0.99536503  0.08945166  0.99622768     0.29100
C3222       C  0.98941093  0.07029169  0.99620203    -0.21700
C3223       C  0.98358853  0.06150702  0.01328246    -0.09800
C3224       C  0.98238006  0.07270762  0.03015520     0.29100
F3225       F  0.97732346  0.06457068  0.04699395    -0.20300
H3226       H  0.98744191  0.10018587  0.04333513     0.17500
H3227       H  0.99079936  0.06184252  0.98310793     0.17500
F3228       F  0.00303680  0.09675814  0.97998608    -0.20300
C3229       C  0.00622888  0.23691883  0.13514865    -0.21700
C3230       C  0.01106808  0.22639320  0.15178697    -0.09800
C3231       C  0.02350530  0.21024859  0.14931150     0.29100
C3232       C  0.02965782  0.20424149  0.13091590    -0.21700
C3233       C  0.02405443  0.21414682  0.11425723    -0.09800
C3234       C  0.01269760  0.23097436  0.11665353     0.29100
F3235       F  0.00684990  0.24099696  0.10110980    -0.20300
H3236       H  0.99695682  0.24957323  0.13636161     0.17500
H3237       H  0.03847470  0.19125748  0.12962042     0.17500
F3238       F  0.02918918  0.19964332  0.16454144    -0.20300
C3239       C  0.01999679  0.07634463  0.07469612    -0.21700
C3240       C  0.01051468  0.09433621  0.07601678    -0.09800
C3241       C  0.99503624  0.09679277  0.08897908     0.29100
C3242       C  0.99256084  0.08346331  0.10341833    -0.21700
C3243       C  0.00572972  0.06801313  0.10503841    -0.09800
C3244       C  0.01750679  0.06301445  0.08918649     0.29100
F3245       F  0.02910840  0.04709558  0.08928140    -0.20300
H3246       H  0.03120305  0.07358604  0.06407102     0.17500
H3247       H  0.98244316  0.08689316  0.11492010     0.17500
F3248       F  0.98408784  0.11317389  0.08936923    -0.20300
C3249       C  0.11251783  0.00109056  0.15102363    -0.21700
C3250       C  0.09456938  0.99334240  0.14657788    -0.09800
C3251       C  0.09144082  0.98631610  0.12785965     0.29100
C3252       C  0.10428840  0.99073365  0.11318557    -0.21700
C3253       C  0.12033517  0.00180990  0.11722381    -0.09800
C3254       C  0.12510925  0.00595649  0.13628373     0.29100
F3255       F  0.14051438  0.01689235  0.14040192    -0.20300
H3256       H  0.11527783  0.00659239  0.16531484     0.17500
H3257       H  0.10065549  0.98727167  0.09849554     0.17500
F3258       F  0.07441911  0.97831633  0.12320430    -0.20300
C3259       C  0.10421721  0.05396447  0.25229614    -0.21700
C3260       C  0.09003103  0.04019530  0.25512575    -0.09800
C3261       C  0.09487250  0.02334524  0.26513263     0.29100
C3262       C  0.11398896  0.01953868  0.27044960    -0.21700
C3263       C  0.12851969  0.03227216  0.26542744    -0.09800
C3264       C  0.12336424  0.04996284  0.25718731     0.29100
F3265       F  0.13710362  0.06272142  0.25252355    -0.20300
H3266       H  0.10091547  0.06692152  0.24441110     0.17500
H3267       H  0.11768398  0.00584471  0.27680957     0.17500
F3268       F  0.08143622  0.00984286  0.26824861    -0.20300
C3269       C  0.99868131  0.97682028  0.10354512    -0.21700
C3270       C  0.99393851  0.99142099  0.09052222    -0.09800
C3271       C  0.98891551  0.00979072  0.09771502     0.29100
C3272       C  0.98964724  0.01364916  0.11749349    -0.21700
C3273       C  0.99578209  0.99939903  0.13033710    -0.09800
C3274       C  0.99990568  0.98081682  0.12321656     0.29100
F3275       F  0.00616058  0.96682439  0.13519672    -0.20300
H3276       H  0.00223005  0.96244569  0.09836216     0.17500
H3277       H  0.98677109  0.02816583  0.12262696     0.17500
F3278       F  0.98340653  0.02398673  0.08563868    -0.20300
C3279       C  0.97674545  0.12933744  0.21053046    -0.21700
C3280       C  0.99284809  0.12190906  0.22044209    -0.09800
C3281       C  0.00093756  0.13314446  0.23505901     0.29100
C3282       C  0.99480683  0.15223220  0.23770851    -0.21700
C3283       C  0.98011520  0.16021660  0.22637171    -0.09800
C3284       C  0.97023936  0.14830698  0.21363455     0.29100
F3285       F  0.95558075  0.15546813  0.20292051    -0.20300
H3286       H  0.96996465  0.12084654  0.19947295     0.17500
H3287       H  0.00230140  0.16116037  0.24791926     0.17500
F3288       F  0.01600533  0.12640637  0.24548461    -0.20300
C3289       C  0.08366083  0.15300336  0.22366084    -0.21700
C3290       C  0.10369606  0.15094340  0.22569841    -0.09800
C3291       C  0.11146774  0.13357825  0.23257862     0.29100
C3292       C  0.09979003  0.11752664  0.23378650    -0.21700
C3293       C  0.08026395  0.11894223  0.22883464    -0.09800
C3294       C  0.07190685  0.13709137  0.22544182     0.29100
F3295       F  0.05301711  0.13883990  0.22075385    -0.20300
H3296       H  0.07743219  0.16636231  0.21851493     0.17500
H3297       H  0.10643969  0.10358971  0.23635932     0.17500
F3298       F  0.13075032  0.13128735  0.23506114    -0.20300
C3299       C  0.18243084  0.16081984  0.08498734    -0.21700
C3300       C  0.19465708  0.15968836  0.10091343    -0.09800
C3301       C  0.20872449  0.14501708  0.10162683     0.29100
C3302       C  0.20783615  0.12961501  0.08883859    -0.21700
C3303       C  0.19277943  0.12873575  0.07552761    -0.09800
C3304       C  0.18129103  0.14525618  0.07235224     0.29100
F3305       F  0.16705155  0.14532711  0.05912007    -0.20300
H3306       H  0.17181423  0.17237393  0.08386793     0.17500
H3307       H  0.21746950  0.11738013  0.09087662     0.17500
F3308       F  0.22170794  0.14440070  0.11606730    -0.20300
C3309       C  0.11500031  0.23247449  0.08492757    -0.21700
C3310       C  0.09670057  0.22630528  0.09024816    -0.09800
C3311       C  0.08877387  0.23228482  0.10794425     0.29100
C3312       C  0.10022310  0.24172781  0.12132124    -0.21700
C3313       C  0.11966247  0.24532529  0.11708438    -0.09800
C3314       C  0.12621102  0.24255657  0.09803356     0.29100
F3315       F  0.14438772  0.24722281  0.09284779    -0.20300
H3316       H  0.12107947  0.22852514  0.07108647     0.17500
H3317       H  0.09453961  0.24403664  0.13568598     0.17500
F3318       F  0.07069077  0.22721021  0.11303700    -0.20300
C3319       C  0.22271951  0.24788701  0.08631456    -0.21700
C3320       C  0.23591024  0.23357680  0.08016751    -0.09800
C3321       C  0.24368660  0.22073334  0.09356086     0.29100
C3322       C  0.23676778  0.22107940  0.11253206    -0.21700
C3323       C  0.22203487  0.23417154  0.11812642    -0.09800
C3324       C  0.21587904  0.24827666  0.10514977     0.29100
F3325       F  0.20135235  0.26080931  0.11000883    -0.20300
H3326       H  0.21657939  0.25786046  0.07610629     0.17500
H3327       H  0.24123628  0.20972615  0.12212021     0.17500
F3328       F  0.25620078  0.20655149  0.08779935    -0.20300
C3329       C  0.19865471  0.10496068  0.24359308    -0.21700
C3330       C  0.19044830  0.08863925  0.23493108    -0.09800
C3331       C  0.17657931  0.09158057  0.22052407     0.29100
C3332       C  0.17195765  0.11010660  0.21437779    -0.21700
C3333       C  0.18070053  0.12623182  0.22247851    -0.09800
C3334       C  0.19385664  0.12360139  0.23741741     0.29100
F3335       F  0.20294568  0.13886165  0.24515780    -0.20300
H3336       H  0.20925225  0.10330865  0.25479222     0.17500
H3337       H  0.16185688  0.11186564  0.20272216     0.17500
F3338       F  0.16783041  0.07661000  0.21182760    -0.20300
C3339       C  0.09289531  0.21962335  0.24229849    -0.21700
C3340       C  0.10544133  0.23339194  0.23506311    -0.09800
C3341       C  0.09843533  0.25253398  0.23338719     0.29100
C3342       C  0.07883842  0.25696666  0.23596466    -0.21700
C3343       C  0.06587487  0.24254876  0.24048903    -0.09800
C3344       C  0.07329540  0.22415776  0.24509257     0.29100
F3345       F  0.06139438  0.21019037  0.25108997    -0.20300
H3346       H  0.09779674  0.20488948  0.24408526     0.17500
H3347       H  0.07362193  0.27134147  0.23279663     0.17500
F3348       F  0.11012037  0.26667762  0.22738448    -0.20300
C3349       C  0.84323142  0.43972267  0.23940926    -0.21700
C3350       C  0.85704548  0.45398646  0.23717165    -0.09800
C3351       C  0.85144504  0.47167960  0.22917491     0.29100
C3352       C  0.83209740  0.47562787  0.22514313    -0.21700
C3353       C  0.81805822  0.46224224  0.22964210    -0.09800
C3354       C  0.82377225  0.44391514  0.23598764     0.29100
F3355       F  0.81039391  0.43064113  0.24025486    -0.20300
H3356       H  0.84713337  0.42615485  0.24593617     0.17500
H3357       H  0.82788950  0.48984081  0.22035249     0.17500
F3358       F  0.86436457  0.48588981  0.22729815    -0.20300
C3359       C  0.94735319  0.36401398  0.24549725    -0.21700
C3360       C  0.95597664  0.37282608  0.26139911    -0.09800
C3361       C  0.97262560  0.36403596  0.26922827     0.29100
C3362       C  0.97961281  0.34633879  0.26209043    -0.21700
C3363       C  0.97000891  0.33682728  0.24729951    -0.09800
C3364       C  0.95418829  0.34616977  0.23856481     0.29100
F3365       F  0.94475637  0.33762958  0.22388328    -0.20300
H3366       H  0.93465312  0.37041493  0.23904090     0.17500
H3367       H  0.99170462  0.33941101  0.26913177     0.17500
F3368       F  0.98176730  0.37208727  0.28434239    -0.20300
C3369       C  0.96111283  0.51345885  0.35962096    -0.21700
C3370       C  0.96493499  0.49507447  0.35178428    -0.09800
C3371       C  0.97265729  0.48078706  0.36372024     0.29100
C3372       C  0.97424713  0.48420095  0.38347969    -0.21700
C3373       C  0.96862912  0.50206109  0.39162155    -0.09800
C3374       C  0.96319377  0.51706009  0.37931272     0.29100
F3375       F  0.95788905  0.53458956  0.38649549    -0.20300
H3376       H  0.95472377  0.52454321  0.35077957     0.17500
H3377       H  0.97884094  0.47249286  0.39258259     0.17500
F3378       F  0.97628594  0.46279958  0.35672616    -0.20300
C3379       C  0.93375839  0.40202582  0.40238746    -0.21700
C3380       C  0.94230016  0.38417733  0.39752368    -0.09800
C3381       C  0.95842673  0.38350395  0.38533654     0.29100
C3382       C  0.96329270  0.39992374  0.37520772    -0.21700
C3383       C  0.95177843  0.41680571  0.37694790    -0.09800
C3384       C  0.93860480  0.41838968  0.39235986     0.29100
F3385       F  0.92809789  0.43476277  0.39569536    -0.20300
H3386       H  0.92194735  0.40294767  0.41262691     0.17500
H3387       H  0.97416902  0.39850565  0.36404115     0.17500
F3388       F  0.96772748  0.36660244  0.38123890    -0.20300
C3389       C  0.83219208  0.26561934  0.49368577    -0.21700
C3390       C  0.83923478  0.25951199  0.47560549    -0.09800
C3391       C  0.82653355  0.24996423  0.46325412     0.29100
C3392       C  0.80689893  0.24877510  0.46784177    -0.21700
C3393       C  0.79952478  0.25646143  0.48516710    -0.09800
C3394       C  0.81257720  0.26393632  0.49855015     0.29100
F3395       F  0.80606476  0.27150607  0.51545976    -0.20300
H3396       H  0.84137998  0.27367469  0.50317537     0.17500
H3397       H  0.79726091  0.24265014  0.45739084     0.17500
F3398       F  0.83262776  0.24422891  0.44551917    -0.20300
C3399       C  0.93842782  0.30473372  0.34188776    -0.21700
C3400       C  0.94788415  0.29798970  0.35836184    -0.09800
C3401       C  0.96263475  0.28404046  0.35593304     0.29100
C3402       C  0.96733318  0.27670605  0.33749380    -0.21700
C3403       C  0.95721864  0.28283001  0.32101059    -0.09800
C3404       C  0.94288074  0.29730841  0.32354472     0.29100
F3405       F  0.93230488  0.30363132  0.30851423    -0.20300
H3406       H  0.92649837  0.31494192  0.34341185     0.17500
H3407       H  0.97844289  0.26560763  0.33626409     0.17500
F3408       F  0.97142261  0.27638795  0.37147988    -0.20300
C3409       C  0.95866893  0.38640443  0.45047801    -0.21700
C3410       C  0.95237802  0.37419170  0.46499901    -0.09800
C3411       C  0.95116797  0.38153639  0.48394476     0.29100
C3412       C  0.95466436  0.40098529  0.48786438    -0.21700
C3413       C  0.95907134  0.41359865  0.47295963    -0.09800
C3414       C  0.96180328  0.40587443  0.45430706     0.29100
F3415       F  0.96694113  0.41725464  0.43954915    -0.20300
H3416       H  0.95962398  0.38128768  0.43578137     0.17500
H3417       H  0.95278760  0.40640267  0.50238980     0.17500
F3418       F  0.94541946  0.37017587  0.49850335    -0.20300
C3419       C  0.80716394  0.24532315  0.38977822    -0.21700
C3420       C  0.81460349  0.23868785  0.37198343    -0.09800
C3421       C  0.83455500  0.23567445  0.37011905     0.29100
C3422       C  0.84663059  0.24413735  0.38337469    -0.21700
C3423       C  0.83884629  0.25599023  0.39815631    -0.09800
C3424       C  0.81915555  0.25487342  0.40250806     0.29100
F3425       F  0.81112931  0.26494320  0.41742299    -0.20300
H3426       H  0.79176260  0.24647944  0.39222682     0.17500
H3427       H  0.86196876  0.24350470  0.38041949     0.17500
F3428       F  0.84243862  0.22782543  0.35388559    -0.20300
C3429       C  0.86936661  0.33769865  0.27822926    -0.21700
C3430       C  0.85006121  0.33903973  0.27250709    -0.09800
C3431       C  0.84359154  0.35548942  0.26270326     0.29100
C3432       C  0.85555251  0.37134770  0.26115322    -0.21700
C3433       C  0.87408447  0.37072322  0.26899710    -0.09800
C3434       C  0.88133187  0.35343156  0.27647206     0.29100
F3435       F  0.89912645  0.35263373  0.28439793    -0.20300
H3436       H  0.87463469  0.32511669  0.28571239     0.17500
H3437       H  0.84963533  0.38473001  0.25574268     0.17500
F3438       F  0.82497605  0.35726618  0.25706527    -0.20300
C3439       C  0.71491082  0.24708229  0.37214200    -0.21700
C3440       C  0.71640115  0.26451906  0.36236652    -0.09800
C3441       C  0.71122589  0.28162400  0.37221380     0.29100
C3442       C  0.70783901  0.28156404  0.39211509    -0.21700
C3443       C  0.70821416  0.26422825  0.40215415    -0.09800
C3444       C  0.71044024  0.24688416  0.39176354     0.29100
F3445       F  0.71002265  0.22980161  0.40092112    -0.20300
H3446       H  0.71907083  0.23371681  0.36500044     0.17500
H3447       H  0.70553213  0.29505229  0.39975315     0.17500
F3448       F  0.71142202  0.29858483  0.36291700    -0.20300
C3449       C  0.77551706  0.40066581  0.26907728    -0.21700
C3450       C  0.76096975  0.40334538  0.25534604    -0.09800
C3451       C  0.75414667  0.38691673  0.24561674     0.29100
C3452       C  0.76083013  0.36841127  0.25049559    -0.21700
C3453       C  0.77435617  0.36589418  0.26511255    -0.09800
C3454       C  0.78203712  0.38223944  0.27397604     0.29100
F3455       F  0.79506560  0.38029207  0.28829201    -0.20300
H3456       H  0.78142879  0.41282897  0.27663967     0.17500
H3457       H  0.75441618  0.35600889  0.24380256     0.17500
F3458       F  0.74034049  0.38854269  0.23204377    -0.20300
C3459       C  0.85820781  0.27283332  0.24668032    -0.21700
C3460       C  0.84717291  0.25828372  0.25479822    -0.09800
C3461       C  0.85607101  0.23998601  0.25717425     0.29100
C3462       C  0.87575385  0.23695777  0.25299576    -0.21700
C3463       C  0.88711265  0.25207556  0.24659050    -0.09800
C3464       C  0.87788997  0.26985891  0.24272129     0.29100
F3465       F  0.88804587  0.28469809  0.23572415    -0.20300
H3466       H  0.85198913  0.28706230  0.24472298     0.17500
H3467       H  0.88234540  0.22306946  0.25589559     0.17500
F3468       F  0.84606377  0.22525301  0.26460180    -0.20300
C3469       C  0.82511775  0.46258856  0.35810317    -0.21700
C3470       C  0.82630838  0.46890300  0.37710281    -0.09800
C3471       C  0.83951058  0.48306577  0.38213359     0.29100
C3472       C  0.85329787  0.48871077  0.36874523    -0.21700
C3473       C  0.85312679  0.48107826  0.35005648    -0.09800
C3474       C  0.83815362  0.46895800  0.34451519     0.29100
F3475       F  0.83776911  0.46105191  0.32666606    -0.20300
H3476       H  0.81470904  0.45194471  0.35402070     0.17500
H3477       H  0.86482827  0.49791769  0.37327165     0.17500
F3478       F  0.84011601  0.49011990  0.40031476    -0.20300
C3479       C  0.80286636  0.35203839  0.49683055    -0.21700
C3480       C  0.80809253  0.37136554  0.49922710    -0.09800
C3481       C  0.82684907  0.37509412  0.50536052     0.29100
C3482       C  0.84120708  0.36111271  0.50221238    -0.21700
C3483       C  0.83653377  0.34359843  0.49330658    -0.09800
C3484       C  0.81720070  0.33813339  0.49318954     0.29100
F3485       F  0.81215541  0.32049071  0.48672733    -0.20300
H3486       H  0.78809410  0.34843802  0.49375772     0.17500
H3487       H  0.85606320  0.36525323  0.50377267     0.17500
F3488       F  0.83203316  0.39310487  0.51045243    -0.20300
C3489       C  0.72093870  0.35866883  0.38943348    -0.21700
C3490       C  0.72947609  0.35665082  0.40751935    -0.09800
C3491       C  0.73683280  0.33841104  0.41262061     0.29100
C3492       C  0.74064843  0.32463205  0.39827522    -0.21700
C3493       C  0.73635985  0.32879752  0.37909676    -0.09800
C3494       C  0.72435866  0.34478614  0.37521964     0.29100
F3495       F  0.71783870  0.34811659  0.35723415    -0.20300
H3496       H  0.71398457  0.37209039  0.38543226     0.17500
H3497       H  0.74882612  0.31177497  0.40188113     0.17500
F3498       F  0.74288378  0.33485966  0.43071040    -0.20300
C3499       C  0.73891821  0.36431729  0.49012670    -0.21700
C3500       C  0.72714932  0.37720846  0.47983959    -0.09800
C3501       C  0.71257216  0.36979761  0.46813776     0.29100
C3502       C  0.71008028  0.34982664  0.46681961    -0.21700
C3503       C  0.72251154  0.33713228  0.47658197    -0.09800
C3504       C  0.73683583  0.34456160  0.48832654     0.29100
F3505       F  0.74860573  0.33265145  0.49841294    -0.20300
H3506       H  0.75039563  0.36958023  0.49907939     0.17500
H3507       H  0.69868416  0.34423976  0.45798058     0.17500
F3508       F  0.70153554  0.38163922  0.45724845    -0.20300
C3509       C  0.72736742  0.47263737  0.35995293    -0.21700
C3510       C  0.74640216  0.47343202  0.36673475    -0.09800
C3511       C  0.76125362  0.47706953  0.35360601     0.29100
C3512       C  0.75730771  0.47847518  0.33400813    -0.21700
C3513       C  0.73844710  0.47653033  0.32702259    -0.09800
C3514       C  0.72333900  0.47441105  0.34035526     0.29100
F3515       F  0.70487556  0.47274918  0.33440954    -0.20300
H3516       H  0.71571835  0.46944437  0.36975142     0.17500
H3517       H  0.76921672  0.48054031  0.32419260     0.17500
F3518       F  0.77984689  0.47730428  0.35942644    -0.20300
C3519       C  0.85825991  0.47456188  0.43774078    -0.21700
C3520       C  0.84379807  0.47924717  0.45137582    -0.09800
C3521       C  0.84925078  0.48841328  0.46846182     0.29100
C3522       C  0.86862658  0.49257924  0.47191685    -0.21700
C3523       C  0.88333497  0.48733152  0.45863818    -0.09800
C3524       C  0.87777002  0.47860470  0.44122089     0.29100
F3525       F  0.89117243  0.47346604  0.42775629    -0.20300
H3526       H  0.85461359  0.46665225  0.42486510     0.17500
H3527       H  0.87217179  0.49925964  0.48549449     0.17500
F3528       F  0.83589432  0.49239942  0.48233427    -0.20300
C3529       C  0.71520092  0.74238538  0.10165184    -0.21700
C3530       C  0.72734488  0.73024080  0.11248155    -0.09800
C3531       C  0.74305604  0.72108205  0.10309792     0.29100
C3532       C  0.74544811  0.72263155  0.08318154    -0.21700
C3533       C  0.73195648  0.73293151  0.07218390    -0.09800
C3534       C  0.71729819  0.74352472  0.08166714     0.29100
F3535       F  0.70468757  0.75449282  0.07153863    -0.20300
H3536       H  0.70259449  0.74910443  0.10835149     0.17500
H3537       H  0.75734562  0.71499078  0.07617819     0.17500
F3538       F  0.75453798  0.70859017  0.11279327    -0.20300
C3539       C  0.68010918  0.60046659  0.21589972    -0.21700
C3540       C  0.69090211  0.61586809  0.22286066    -0.09800
C3541       C  0.70762966  0.61179384  0.23332428     0.29100
C3542       C  0.71365545  0.59269004  0.23627445    -0.21700
C3543       C  0.70345652  0.57719082  0.22833922    -0.09800
C3544       C  0.68633244  0.58138421  0.21837615     0.29100
F3545       F  0.67601843  0.56718239  0.21019786    -0.20300
H3546       H  0.66766563  0.60328497  0.20699079     0.17500
H3547       H  0.72693352  0.59010674  0.24395876     0.17500
F3548       F  0.71898393  0.62627771  0.23929177    -0.20300
C3549       C  0.58815631  0.70920316  0.20069804    -0.21700
C3550       C  0.60280045  0.70872118  0.21458712    -0.09800
C3551       C  0.59746256  0.71061272  0.23400588     0.29100
C3552       C  0.57793614  0.71385790  0.23911660    -0.21700
C3553       C  0.56340613  0.71459718  0.22501896    -0.09800
C3554       C  0.56880796  0.71184606  0.20576248     0.29100
F3555       F  0.55551315  0.71275288  0.19161745    -0.20300
H3556       H  0.59169939  0.70748536  0.18561091     0.17500
H3557       H  0.57416778  0.71599997  0.25409390     0.17500
F3558       F  0.61105596  0.71022896  0.24787398    -0.20300
C3559       C  0.64395415  0.74613170  0.07392501    -0.21700
C3560       C  0.62528860  0.75201421  0.07986899    -0.09800
C3561       C  0.62308979  0.76080423  0.09797413     0.29100
C3562       C  0.63728206  0.75765134  0.11167190    -0.21700
C3563       C  0.65310744  0.74541839  0.10714985    -0.09800
C3564       C  0.65774976  0.74205871  0.08773424     0.29100
F3565       F  0.67369213  0.73161939  0.08246409    -0.20300
H3566       H  0.64661063  0.74078008  0.05947374     0.41500
H3567       H  0.63405223  0.76175485  0.12638888     0.17500
F3568       F  0.60598691  0.76890976  0.10357541    -0.20300
C3569       C  0.62882253  0.73610803  0.98467631    -0.21700
C3570       C  0.61810358  0.74801684  0.99743399    -0.09800
C3571       C  0.62759607  0.76363398  0.00597374     0.29100
C3572       C  0.64759320  0.76601889  0.00320236    -0.21700
C3573       C  0.65858977  0.75258446  0.99228852    -0.09800
C3574       C  0.64879715  0.73802351  0.98247407     0.29100
F3575       F  0.65877130  0.72473182  0.97178019    -0.20300
H3576       H  0.62219077  0.72358957  0.97841521     0.17500
H3577       H  0.65473579  0.77734763  0.01096001     0.17500
F3578       F  0.61806019  0.77513406  0.01887796    -0.20300
C3579       C  0.50857412  0.74679627  0.12365491    -0.21700
C3580       C  0.50569601  0.72875854  0.11469877    -0.09800
C3581       C  0.49592014  0.71485034  0.12528314     0.29100
C3582       C  0.49079239  0.71833270  0.14463164    -0.21700
C3583       C  0.49474678  0.73593580  0.15390775    -0.09800
C3584       C  0.50302010  0.75044388  0.14285960     0.29100
F3585       F  0.50707354  0.76768455  0.15096330    -0.20300
H3586       H  0.51608444  0.75787865  0.11603122     0.17500
H3587       H  0.48417557  0.70692483  0.15259355     0.17500
F3588       F  0.49262956  0.69731814  0.11746268    -0.20300
C3589       C  0.50713650  0.59649405  0.03464603    -0.21700
C3590       C  0.50210879  0.59073361  0.01587802    -0.09800
C3591       C  0.49975074  0.60531889  0.00211335     0.29100
C3592       C  0.50341218  0.62468310  0.00681475    -0.21700
C3593       C  0.50909160  0.63020800  0.02540779    -0.09800
C3594       C  0.51074979  0.61580520  0.03927086     0.29100
F3595       F  0.51797701  0.62006935  0.05675864    -0.20300
H3596       H  0.50919483  0.58588614  0.04570390     0.17500
H3597       H  0.50278485  0.63529326  0.99559425     0.17500
F3598       F  0.49502214  0.60082921  0.98378925    -0.20300
C3599       C  0.65800122  0.64982149  0.00510383    -0.21700
C3600       C  0.65255801  0.63094380  0.00102438    -0.09800
C3601       C  0.63561176  0.62804708  0.99047780     0.29100
C3602       C  0.62215852  0.64306064  0.98880269    -0.21700
C3603       C  0.62584005  0.66096955  0.99725280    -0.09800
C3604       C  0.64489545  0.66497288  0.00260934     0.29100
F3605       F  0.64990475  0.68281437  0.00853001    -0.20300
H3606       H  0.67132652  0.65267554  0.01243544     0.17500
H3607       H  0.60800010  0.63988899  0.98334989     0.17500
F3608       F  0.63087424  0.61030623  0.98406509    -0.20300
C3609       C  0.74357129  0.64101766  0.07721064    -0.21700
C3610       C  0.74770030  0.62170268  0.08157296    -0.09800
C3611       C  0.75139030  0.61724231  0.10077992     0.29100
C3612       C  0.74328361  0.62906005  0.11508946    -0.21700
C3613       C  0.73305117  0.64589857  0.11003395    -0.09800
C3614       C  0.73544993  0.65300920  0.09138022     0.29100
F3615       F  0.72799748  0.67038343  0.08631452    -0.20300
H3616       H  0.74239666  0.64541106  0.06240205     0.17500
H3617       H  0.74319602  0.62393669  0.12968996     0.17500
F3618       F  0.75872030  0.59976197  0.10561057    -0.20300
C3619       C  0.71374019  0.62697180  0.99329323    -0.21700
C3620       C  0.72920182  0.61373249  0.99484623    -0.09800
C3621       C  0.74795030  0.62084105  0.99537507     0.29100
C3622       C  0.75100560  0.64067126  0.99590173    -0.21700
C3623       C  0.73541059  0.65400239  0.99626447    -0.09800
C3624       C  0.71671749  0.64687956  0.99418959     0.29100
F3625       F  0.70131704  0.65910819  0.99322483    -0.20300
H3626       H  0.69918617  0.62185994  0.99269450     0.17500
H3627       H  0.76567154  0.64556013  0.99681437     0.17500
F3628       F  0.76328174  0.60854070  0.99681655    -0.20300
C3629       C  0.70159432  0.50356082  0.12431728    -0.21700
C3630       C  0.71660270  0.50869925  0.11198053    -0.09800
C3631       C  0.73564363  0.50815371  0.11885765     0.29100
C3632       C  0.73927990  0.50428672  0.13814799    -0.21700
C3633       C  0.72401604  0.50105930  0.15096011    -0.09800
C3634       C  0.70518622  0.49983769  0.14361707     0.29100
F3635       F  0.69003717  0.49586558  0.15520201    -0.20300
H3636       H  0.68681584  0.50397345  0.11944328     0.17500
H3637       H  0.75394135  0.50496595  0.14325744     0.17500
F3638       F  0.75062293  0.51257173  0.10720832    -0.20300
C3639       C  0.61106955  0.50989084  0.01286151    -0.21700
C3640       C  0.61578220  0.51594152  0.03147279    -0.09800
C3641       C  0.60107966  0.51781154  0.04533978     0.29100
C3642       C  0.58185689  0.51483591  0.04033246    -0.21700
C3643       C  0.57693656  0.50967561  0.02145189    -0.09800
C3644       C  0.59190190  0.50641868  0.00793025     0.29100
F3645       F  0.58795111  0.50120631  0.98959086    -0.20300
H3646       H  0.62213835  0.50889829  0.00184451     0.17500
H3647       H  0.57072804  0.51714082  0.05113135     0.17500
F3648       F  0.60511998  0.52420167  0.06329372    -0.20300
C3649       C  0.51040447  0.64142318  0.14110481    -0.21700
C3650       C  0.50500741  0.62254972  0.13642347    -0.09800
C3651       C  0.50123517  0.61801361  0.11706633     0.29100
C3652       C  0.50524688  0.63129830  0.10273407    -0.21700
C3653       C  0.51336903  0.64894883  0.10746136    -0.09800
C3654       C  0.51503199  0.65432587  0.12676287     0.29100
F3655       F  0.52282969  0.67137176  0.13172125    -0.20300
H3656       H  0.51307690  0.64564904  0.15581965     0.17500
H3657       H  0.50354973  0.62713182  0.08790390     0.17500
F3658       F  0.49548090  0.60024763  0.11174789    -0.20300
C3659       C  0.63206013  0.53000824  0.15088917    -0.21700
C3660       C  0.61385900  0.52288695  0.14634091    -0.09800
C3661       C  0.61128494  0.51428355  0.12825203     0.29100
C3662       C  0.62560936  0.51554915  0.11403406    -0.21700
C3663       C  0.64265720  0.52533491  0.11783362    -0.09800
C3664       C  0.64641923  0.53111855  0.13680877     0.29100
F3665       F  0.66321977  0.53969340  0.14122640    -0.20300
H3666       H  0.63443067  0.53664340  0.16477620     0.17500
H3667       H  0.62243436  0.51086293  0.09956065     0.17500
F3668       F  0.59397983  0.50717520  0.12346990    -0.20300
C3669       C  0.57108888  0.64599439  0.21706597    -0.21700
C3670       C  0.57386602  0.63040232  0.22944355    -0.09800
C3671       C  0.59203754  0.62781765  0.23805942     0.29100
C3672       C  0.60782045  0.63781609  0.23114736    -0.21700
C3673       C  0.60551024  0.65032410  0.21569270    -0.09800
C3674       C  0.58689501  0.65537672  0.20962607     0.29100
F3675       F  0.58411728  0.66794752  0.19515554    -0.20300
H3676       H  0.55718412  0.64893234  0.21068869     0.17500
H3677       H  0.62205574  0.63426506  0.23647416     0.17500
F3678       F  0.59510924  0.61383246  0.25114867    -0.20300
C3679       C  0.61525326  0.49796933  0.21877948    -0.21700
C3680       C  0.60387372  0.51007865  0.23064933    -0.09800
C3681       C  0.61134956  0.51554341  0.24873474     0.29100
C3682       C  0.63054527  0.51104504  0.25349761    -0.21700
C3683       C  0.64254084  0.50103502  0.24040750    -0.09800
C3684       C  0.63436468  0.49357088  0.22351387     0.29100
F3685       F  0.64527856  0.48299836  0.21089273    -0.20300
H3686       H  0.60998783  0.49326979  0.20496253     0.17500
H3687       H  0.63640791  0.51668015  0.26670804     0.17500
F3688       F  0.60061591  0.52641325  0.26126710    -0.20300
C3689       C  0.49184082  0.63728439  0.25296698    -0.21700
C3690       C  0.48212486  0.65017334  0.24081229    -0.09800
C3691       C  0.47152247  0.64278860  0.22544110     0.29100
C3692       C  0.47205124  0.62313344  0.22130655    -0.21700
C3693       C  0.48349524  0.61042207  0.23208928    -0.09800
C3694       C  0.49268582  0.61750556  0.24856178     0.29100
F3695       F  0.50415430  0.60576145  0.25912209    -0.20300
H3696       H  0.49993447  0.64267530  0.26502137     0.17500
H3697       H  0.46485500  0.61804867  0.20854857     0.17500
F3698       F  0.46137133  0.65471980  0.21381545    -0.20300
C3699       C  0.50674325  0.49584340  0.12102611    -0.21700
C3700       C  0.52588490  0.50035944  0.12546436    -0.09800
C3701       C  0.53995756  0.49846734  0.11097262     0.29100
C3702       C  0.53467101  0.49415930  0.09207674    -0.21700
C3703       C  0.51531876  0.49119902  0.08740321    -0.09800
C3704       C  0.50149359  0.49113754  0.10218764     0.29100
F3705       F  0.48261018  0.48881927  0.09805881    -0.20300
H3706       H  0.49553791  0.49772408  0.13181802     0.17500
H3707       H  0.54549529  0.49453576  0.08082343     0.17500
F3708       F  0.55834040  0.50337944  0.11451125    -0.20300
C3709       C  0.99803034  0.61855735  0.71604529    -0.21700
C3710       C  0.01650819  0.61068281  0.71971088    -0.09800
C3711       C  0.02959229  0.62167019  0.73016929     0.29100
C3712       C  0.02500036  0.64080749  0.73487989    -0.21700
C3713       C  0.00724998  0.64920471  0.72949643    -0.09800
C3714       C  0.99340425  0.63766664  0.72088795     0.29100
F3715       F  0.97623677  0.64535740  0.71535348    -0.20300
H3716       H  0.98769849  0.61037383  0.70796521     0.17500
H3717       H  0.03578287  0.64942971  0.74182251     0.17500
F3718       F  0.04757807  0.61471411  0.73387591    -0.20300
C3719       C  0.13469437  0.49323505  0.73080116    -0.21700
C3720       C  0.14711920  0.50791939  0.73626205    -0.09800
C3721       C  0.13945628  0.52682053  0.73813449     0.29100
C3722       C  0.12040651  0.53109802  0.73274956    -0.21700
C3723       C  0.10869135  0.51668056  0.72528793    -0.09800
C3724       C  0.11572519  0.49752554  0.72532891     0.29100
F3725       F  0.10465515  0.48306805  0.71875715    -0.20300
H3726       H  0.14003946  0.47855512  0.72946761     0.17500
H3727       H  0.11540286  0.54593910  0.73290138     0.17500
F3728       F  0.15061370  0.54134504  0.74437402    -0.20300
C3729       C  0.98189807  0.51604662  0.59883251    -0.21700
C3730       C  0.99251882  0.50200245  0.60879848    -0.09800
C3731       C  0.99840519  0.48518694  0.59876044     0.29100
C3732       C  0.99502632  0.48323944  0.57896140    -0.21700
C3733       C  0.98642892  0.49835709  0.56866316    -0.09800
C3734       C  0.97923828  0.51450874  0.57897727     0.29100
F3735       F  0.97056028  0.52935231  0.56972285    -0.20300
H3736       H  0.97787539  0.52946680  0.60596432     0.17500
H3737       H  0.00062172  0.47061979  0.57140811     0.17500
F3738       F  0.00964021  0.47181294  0.60755381    -0.20300
C3739       C  0.00382303  0.58956671  0.56424168    -0.21700
C3740       C  0.99542479  0.60751046  0.56903491    -0.09800
C3741       C  0.98540295  0.60951991  0.58657331     0.29100
C3742       C  0.98854077  0.59604219  0.60089972    -0.21700
C3743       C  0.00124904  0.58038397  0.59753303    -0.09800
C3744       C  0.00695894  0.57603359  0.57849971     0.29100
F3745       F  0.01796652  0.56021810  0.57412727    -0.20300
H3746       H  0.01078370  0.58717572  0.55044382     0.17500
H3747       H  0.98286671  0.59908337  0.61514662     0.17500
F3748       F  0.97520219  0.62586046  0.59091089    -0.20300
C3749       C  0.04471685  0.71486775  0.63183957    -0.21700
C3750       C  0.02958963  0.71646594  0.61864283    -0.09800
C3751       C  0.01110869  0.72174631  0.62547030     0.29100
C3752       C  0.00787808  0.72550092  0.64502251    -0.21700
C3753       C  0.02281207  0.72335206  0.65841864    -0.09800
C3754       C  0.04136194  0.71802377  0.65157076     0.29100
F3755       F  0.05621340  0.71569428  0.66391676    -0.20300
H3756       H  0.05892070  0.71015807  0.62698424     0.17500
H3757       H  0.99342108  0.72939234  0.64979319     0.17500
F3758       F  0.99599067  0.72259454  0.61325561    -0.20300
C3759       C  0.12617232  0.72814056  0.53992864    -0.21700
C3760       C  0.11426106  0.72739226  0.52369345    -0.09800
C3761       C  0.12254185  0.73083266  0.50564244     0.29100
C3762       C  0.14225358  0.73441652  0.50387397    -0.21700
C3763       C  0.15445633  0.73393296  0.51991809    -0.09800
C3764       C  0.14612056  0.73097557  0.53809511     0.29100
F3765       F  0.15720858  0.73061372  0.55403268    -0.20300
H3766       H  0.12022815  0.72532414  0.55394187     0.17500
H3767       H  0.14816044  0.73674032  0.48969299     0.17500
F3768       F  0.11167782  0.73001087  0.48957065    -0.20300
C3769       C  0.97725055  0.61798343  0.51219719    -0.21700
C3770       C  0.98141241  0.63069030  0.49732316    -0.09800
C3771       C  0.98022626  0.62381486  0.47832537     0.29100
C3772       C  0.97745616  0.60418097  0.47453552    -0.21700
C3773       C  0.97634956  0.59095316  0.48964127    -0.09800
C3774       C  0.97531611  0.59829406  0.50855806     0.29100
F3775       F  0.97379645  0.58636906  0.52371883    -0.20300
H3776       H  0.97810967  0.62285716  0.52694892     0.17500
H3777       H  0.97788045  0.59914590  0.45978906     0.17500
F3778       F  0.98401857  0.63565970  0.46351578    -0.20300
C3779       C  0.09984121  0.61949838  0.48030856    -0.21700
C3780       C  0.08050161  0.61589967  0.48440066    -0.09800
C3781       C  0.07545548  0.59705768  0.48930476     0.29100
C3782       C  0.08959252  0.58453182  0.49628624    -0.21700
C3783       C  0.10872722  0.59037077  0.49706111    -0.09800
C3784       C  0.11404616  0.60698987  0.48699368     0.29100
F3785       F  0.13255739  0.61287950  0.48629439    -0.20300
H3786       H  0.10410541  0.63347627  0.47533620     0.17500
H3787       H  0.08529641  0.57127694  0.50284423     0.17500
F3788       F  0.05673758  0.59204738  0.49090203    -0.20300
C3789       C  0.11313896  0.48987308  0.60341435    -0.21700
C3790       C  0.10772758  0.50214210  0.58834668    -0.09800
C3791       C  0.08968263  0.49958670  0.57974379     0.29100
C3792       C  0.07610988  0.48836897  0.58904005    -0.21700
C3793       C  0.07988874  0.48298443  0.60805986    -0.09800
C3794       C  0.09921837  0.47899094  0.61246816     0.29100
F3795       F  0.10391624  0.46971700  0.62885136    -0.20300
H3796       H  0.12751854  0.48996650  0.60931355     0.17500
H3797       H  0.06142970  0.48882816  0.58388489     0.17500
F3798       F  0.08468355  0.50895364  0.56350793    -0.20300
C3799       C  0.21857741  0.53916964  0.65571802    -0.21700
C3800       C  0.22601849  0.52087125  0.66030267    -0.09800
C3801       C  0.23211410  0.50861416  0.64494396     0.29100
C3802       C  0.22992839  0.51423634  0.62577521    -0.21700
C3803       C  0.22199377  0.53227400  0.62125198    -0.09800
C3804       C  0.21656423  0.54479007  0.63650627     0.29100
F3805       F  0.20755260  0.56181706  0.63279530    -0.20300
H3806       H  0.21375220  0.54897713  0.66700640     0.17500
H3807       H  0.23321762  0.50392758  0.61440859     0.17500
F3808       F  0.23907865  0.49061661  0.64828439    -0.20300
C3809       C  0.21902143  0.62634948  0.50504674    -0.21700
C3810       C  0.22410579  0.61753037  0.52246775    -0.09800
C3811       C  0.23446310  0.62842197  0.53586378     0.29100
C3812       C  0.23723681  0.64822345  0.53296394    -0.21700
C3813       C  0.23059638  0.65720697  0.51616855    -0.09800
C3814       C  0.22216802  0.64580454  0.50193570     0.29100
F3815       F  0.21553406  0.65380438  0.48552762    -0.20300
H3816       H  0.21129954  0.61847003  0.49417194     0.17500
H3817       H  0.24440335  0.65655758  0.54388405     0.17500
F3818       F  0.24123209  0.62012758  0.55200373    -0.20300
C3819       C  0.06510974  0.53166354  0.51368273    -0.21700
C3820       C  0.06124840  0.52029963  0.49757723    -0.09800
C3821       C  0.07724028  0.51239514  0.48707361     0.29100
C3822       C  0.09637344  0.51503887  0.49331000    -0.21700
C3823       C  0.09998644  0.52540951  0.51020654    -0.09800
C3824       C  0.08393503  0.53412243  0.51996170     0.29100
F3825       F  0.08623302  0.54478456  0.53616349    -0.20300
H3826       H  0.05343787  0.53821513  0.52200887     0.17500
H3827       H  0.10820636  0.50820534  0.48546175     0.17500
F3828       F  0.07446838  0.50157014  0.47108530    -0.20300
C3829       C  0.12897047  0.72609087  0.61362251    -0.21700
C3830       C  0.14638518  0.71557918  0.61108080    -0.09800
C3831       C  0.14824286  0.70295336  0.59523533     0.29100
C3832       C  0.13212867  0.69860918  0.58433226    -0.21700
C3833       C  0.11412716  0.70727409  0.58850070    -0.09800
C3834       C  0.11296250  0.72214048  0.60225470     0.29100
F3835       F  0.09598119  0.73150008  0.60598322    -0.20300
H3836       H  0.12724324  0.73616020  0.62549281     0.17500
H3837       H  0.13351356  0.68772624  0.57315213     0.17500
F3838       F  0.16492020  0.69301486  0.59162692    -0.20300
C3839       C  0.24414189  0.62317416  0.62375164    -0.21700
C3840       C  0.24143896  0.64244845  0.61843482    -0.09800
C3841       C  0.23536939  0.64643793  0.59962518     0.29100
C3842       C  0.22662462  0.63213428  0.58897893    -0.21700
C3843       C  0.22637690  0.61335762  0.59579855    -0.09800
C3844       C  0.23657350  0.60857574  0.61238743     0.29100
F3845       F  0.23674421  0.59031705  0.61896184    -0.20300
H3846       H  0.24929981  0.61958395  0.63790890     0.17500
H3847       H  0.21892043  0.63597606  0.57608440     0.17500
F3848       F  0.23451768  0.66472983  0.59309207    -0.20300
C3849       C  0.14406444  0.60082582  0.71057195    -0.21700
C3850       C  0.14013943  0.62030079  0.71473721    -0.09800
C3851       C  0.12119193  0.62599440  0.71981843     0.29100
C3852       C  0.10611196  0.61287648  0.71821112    -0.21700
C3853       C  0.10987048  0.59399634  0.71165552    -0.09800
C3854       C  0.12912195  0.58778874  0.70903568     0.29100
F3855       F  0.13324322  0.56967717  0.70258952    -0.20300
H3856       H  0.15850910  0.59613994  0.70645039     0.17500
H3857       H  0.09137605  0.61804345  0.71998021     0.17500
F3858       F  0.11689312  0.64473948  0.72369706    -0.20300
C3859       C  0.11725376  0.70260053  0.74496296    -0.21700
C3860       C  0.12994732  0.71442875  0.73522961    -0.09800
C3861       C  0.12480901  0.73392465  0.73255849     0.29100
C3862       C  0.10615240  0.74059054  0.73686331    -0.21700
C3863       C  0.09248158  0.72785775  0.74371767    -0.09800
C3864       C  0.09852190  0.70920194  0.74908291     0.29100
F3865       F  0.08584052  0.69678242  0.75668906    -0.20300
H3866       H  0.12097331  0.68761324  0.74721209     0.17500
H3867       H  0.10189225  0.75505194  0.73289804     0.17500
F3868       F  0.13706988  0.74585971  0.72355640    -0.20300
C3869       C  0.21435946  0.61287408  0.74377598    -0.21700
C3870       C  0.22824884  0.62484071  0.73589335    -0.09800
C3871       C  0.24713925  0.61726383  0.73285563     0.29100
C3872       C  0.25114831  0.59764201  0.73521591    -0.21700
C3873       C  0.23645459  0.58533029  0.74057242    -0.09800
C3874       C  0.21832976  0.59330530  0.74598513     0.29100
F3875       F  0.20400767  0.58198339  0.75236605    -0.20300
H3876       H  0.19979031  0.61817820  0.74641204     0.17500
H3877       H  0.26529938  0.59188749  0.73142019     0.17500
F3878       F  0.26130479  0.62841221  0.72586957    -0.20300
C3879       C  0.20377934  0.74965404  0.61989574    -0.21700
C3880       C  0.22027155  0.75019026  0.63141352    -0.09800
C3881       C  0.23761940  0.75643416  0.62342118     0.29100
C3882       C  0.23882848  0.76025103  0.60379921    -0.21700
C3883       C  0.22293817  0.75720374  0.59189517    -0.09800
C3884       C  0.20514907  0.75271731  0.60016447     0.29100
F3885       F  0.18953752  0.74980913  0.58898484    -0.20300
H3886       H  0.19040902  0.74438628  0.62570931     0.17500
H3887       H  0.25268789  0.76362399  0.59760370     0.17500
F3888       F  0.25390719  0.75644270  0.63405404    -0.20300
C3889       C  0.44462319  0.85980317  0.24084691    -0.21700
C3890       C  0.45156138  0.86638203  0.25868378    -0.09800
C3891       C  0.46371851  0.85390206  0.26908742     0.29100
C3892       C  0.46763147  0.83513970  0.26261870    -0.21700
C3893       C  0.45967256  0.82800517  0.24557075    -0.09800
C3894       C  0.44859816  0.84074649  0.23432618     0.29100
F3895       F  0.44035772  0.83438389  0.21793771    -0.20300
H3896       H  0.43504039  0.86892909  0.23261900     0.17500
H3897       H  0.47631547  0.82576163  0.27152907     0.17500
F3898       F  0.47112769  0.85952793  0.28616317    -0.20300
C3899       C  0.33151088  0.99488506  0.27852302    -0.21700
C3900       C  0.34176070  0.98105413  0.26752016    -0.09800
C3901       C  0.33299766  0.97345516  0.25098185     0.29100
C3902       C  0.31389766  0.97852233  0.24647282    -0.21700
C3903       C  0.30301174  0.99074742  0.25868603    -0.09800
C3904       C  0.31223198  0.99946894  0.27437726     0.29100
F3905       F  0.30226622  0.01164270  0.28633203    -0.20300
H3906       H  0.33786959  0.00092216  0.29131215     0.17500
H3907       H  0.30714721  0.97164281  0.23432866     0.17500
F3908       F  0.34252181  0.96022332  0.23982448    -0.20300
C3909       C  0.46049445  0.00668102  0.35437042    -0.21700
C3910       C  0.44114923  0.00387341  0.34920592    -0.09800
C3911       C  0.42707383  0.00464303  0.36397178     0.29100
C3912       C  0.43243631  0.00667213  0.38326640    -0.21700
C3913       C  0.45180342  0.00868900  0.38835544    -0.09800
C3914       C  0.46573307  0.00943034  0.37365949     0.29100
F3915       F  0.48456852  0.01162529  0.37804999    -0.20300
H3916       H  0.47171741  0.00591175  0.34350711     0.17500
H3917       H  0.42142401  0.00631170  0.39433788     0.17500
F3918       F  0.40823592  0.00189357  0.36002428    -0.20300
C3919       C  0.35325049  0.99762631  0.36695998    -0.21700
C3920       C  0.35322562  0.99078614  0.34792972    -0.09800
C3921       C  0.33575503  0.98514846  0.33978464     0.29100
C3922       C  0.31940723  0.98352094  0.35135799    -0.21700
C3923       C  0.32034303  0.98737476  0.37111945    -0.09800
C3924       C  0.33676472  0.99622693  0.37848857     0.29100
F3925       F  0.33797095  0.00058869  0.39744724    -0.20300
H3926       H  0.36661101  0.00192322  0.37350251     0.17500
H3927       H  0.30684024  0.97674499  0.34541866     0.17500
F3928       F  0.33534202  0.97777415  0.32170210    -0.20300
C3929       C  0.27776762  0.84291517  0.50452640    -0.21700
C3930       C  0.26265433  0.83093931  0.49922361    -0.09800
C3931       C  0.24577212  0.83917210  0.49167225     0.29100
C3932       C  0.24451438  0.85885545  0.48824226    -0.21700
C3933       C  0.26017159  0.87074723  0.49194254    -0.09800
C3934       C  0.27660869  0.86272374  0.50077808     0.29100
F3935       F  0.29223157  0.87364611  0.50396885    -0.20300
H3936       H  0.29072416  0.83682637  0.51076718     0.17500
H3937       H  0.23200581  0.86451550  0.48081629     0.17500
F3938       F  0.23079961  0.82796758  0.48671146    -0.20300
C3939       C  0.21449096  0.99238330  0.38114427    -0.21700
C3940       C  0.23391898  0.99494423  0.38617320    -0.09800
C3941       C  0.24646994  0.00252232  0.37238553     0.29100
C3942       C  0.24052495  0.00438027  0.35341095    -0.21700
C3943       C  0.22189394  0.99924048  0.34786145    -0.09800
C3944       C  0.20845302  0.99461410  0.36213445     0.29100
F3945       F  0.19011238  0.99027342  0.35745189    -0.20300
H3946       H  0.20444613  0.98673221  0.39149474     0.17500
H3947       H  0.25095990  0.00869632  0.34275664     0.17500
F3948       F  0.26524619  0.00559964  0.37647932    -0.20300
C3949       C  0.36753200  0.97741138  0.42813185    -0.21700
C3950       C  0.35120149  0.98409605  0.43847711    -0.09800
C3951       C  0.35373135  0.99623563  0.45438598     0.29100
C3952       C  0.37235210  0.00036089  0.46063840    -0.21700
C3953       C  0.38872537  0.99240229  0.45114741    -0.09800
C3954       C  0.38607404  0.98140479  0.43437107     0.29100
F3955       F  0.40133626  0.97411112  0.42417596    -0.20300
H3956       H  0.36591319  0.96802944  0.41576904     0.17500
H3957       H  0.37392237  0.00913364  0.47342564     0.17500
F3958       F  0.33831739  0.00266486  0.46487013    -0.20300
C3959       C  0.46700620  0.87658115  0.38561504    -0.21700
C3960       C  0.45149853  0.87999247  0.39847204    -0.09800
C3961       C  0.44202897  0.89800595  0.39858874     0.29100
C3962       C  0.44547090  0.91061270  0.38360564    -0.21700
C3963       C  0.45813784  0.90512150  0.36863892    -0.09800
C3964       C  0.47006556  0.88894059  0.37048769     0.29100
F3965       F  0.48270468  0.88376821  0.35631805    -0.20300
H3966       H  0.47525205  0.86320606  0.38582241     0.17500
H3967       H  0.43630224  0.92330544  0.38229242     0.17500
F3968       F  0.42779925  0.90236175  0.41146706    -0.20300
C3969       C  0.35756550  0.86766113  0.48979121    -0.21700
C3970       C  0.35930957  0.84903589  0.48249438    -0.09800
C3971       C  0.34339995  0.84046875  0.47359654     0.29100
C3972       C  0.32740446  0.85176611  0.46873318    -0.21700
C3973       C  0.32712511  0.87138796  0.47324195    -0.09800
C3974       C  0.34119767  0.87864901  0.48579633     0.29100
F3975       F  0.34036285  0.89710852  0.49225029    -0.20300
H3976       H  0.36956487  0.87424695  0.49697802     0.17500
H3977       H  0.31647201  0.84568810  0.45963123     0.17500
F3978       F  0.34462473  0.82212826  0.46678136    -0.20300
C3979       C  0.47526538  0.75907898  0.33895939    -0.21700
C3980       C  0.46442895  0.74404421  0.33140586    -0.09800
C3981       C  0.45182327  0.73441588  0.34374652     0.29100
C3982       C  0.44897564  0.74093214  0.36283005    -0.21700
C3983       C  0.45881170  0.75700976  0.36991562    -0.09800
C3984       C  0.47272847  0.76534242  0.35794324     0.29100
F3985       F  0.48321684  0.78034553  0.36425141    -0.20300
H3986       H  0.48525279  0.76656361  0.32983511     0.17500
H3987       H  0.43807770  0.73429190  0.37156941     0.17500
F3988       F  0.44105692  0.71986107  0.33691322    -0.20300
C3989       C  0.35016252  0.74207630  0.49541110    -0.21700
C3990       C  0.33512218  0.74666698  0.48269476    -0.09800
C3991       C  0.33994426  0.75082668  0.46354036     0.29100
C3992       C  0.35926385  0.75125828  0.45762404    -0.21700
C3993       C  0.37428663  0.74780718  0.47058316    -0.09800
C3994       C  0.36952147  0.74289019  0.48953710     0.29100
F3995       F  0.38358942  0.73974557  0.50260930    -0.20300
H3996       H  0.34697267  0.73865385  0.51018962     0.17500
H3997       H  0.36250844  0.75576093  0.44318647     0.17500
F3998       F  0.32603520  0.75486446  0.45054016    -0.20300
C3999       C  0.45612860  0.91061188  0.49408584    -0.21700
C4000       C  0.46382983  0.92133941  0.47898256    -0.09800
C4001       C  0.47100050  0.91126605  0.46267570     0.29100
C4002       C  0.46927046  0.89123104  0.46103747    -0.21700
C4003       C  0.46027983  0.88066894  0.47550312    -0.09800
C4004       C  0.45399820  0.89058277  0.49222102     0.29100
F4005       F  0.44453154  0.88108329  0.50616917    -0.20300
H4006       H  0.45060284  0.91789630  0.50684421     0.17500
H4007       H  0.47363690  0.88414801  0.44774035     0.17500
F4008       F  0.47925328  0.92086560  0.44802640    -0.20300
C4009       C  0.34526634  0.73910803  0.38480986    -0.21700
C4010       C  0.34723750  0.74620634  0.36616781    -0.09800
C4011       C  0.36577787  0.74755906  0.35819349     0.29100
C4012       C  0.38196212  0.74504056  0.36983299    -0.21700
C4013       C  0.37963469  0.74216497  0.38960159    -0.09800
C4014       C  0.36146866  0.73672844  0.39642133     0.29100
F4015       F  0.35883593  0.73304173  0.41529805    -0.20300
H4016       H  0.33108552  0.73797575  0.39122869     0.17500
H4017       H  0.39584987  0.74920559  0.36424629     0.17500
F4018       F  0.36816811  0.75466682  0.34031925    -0.20300
C4019       C  0.21163302  0.86141214  0.38081997    -0.21700
C4020       C  0.22035778  0.84420800  0.38698199    -0.09800
C4021       C  0.22166766  0.84079032  0.40673950     0.29100
C4022       C  0.21914960  0.85618990  0.41956306    -0.21700
C4023       C  0.21624728  0.87479934  0.41234460    -0.09800
C4024       C  0.20892649  0.87667359  0.39374732     0.29100
F4025       F  0.20371214  0.89417522  0.38690186    -0.20300
H4026       H  0.20971361  0.86400109  0.36566032     0.17500
H4027       H  0.22366969  0.85427642  0.43427134     0.17500
F4028       F  0.22919842  0.82397679  0.41328100    -0.20300
C4029       C  0.33562939  0.87339698  0.32663227    -0.21700
C4030       C  0.32221499  0.87098603  0.31195301    -0.09800
C4031       C  0.32828696  0.87231147  0.29273763     0.29100
C4032       C  0.34758650  0.87539121  0.28835063    -0.21700
C4033       C  0.36125576  0.87675578  0.30298012    -0.09800
C4034       C  0.35507085  0.87577712  0.32225209     0.29100
F4035       F  0.36769905  0.87712219  0.33693134    -0.20300
H4036       H  0.33133730  0.87198410  0.34150488     0.17500
H4037       H  0.35189806  0.87656001  0.27345833     0.17500
F4038       F  0.31564169  0.86999985  0.27817976    -0.20300
C4039       C  0.36682217  0.78175825  0.28276808    -0.21700
C4040       C  0.35242019  0.76814214  0.28588155    -0.09800
C4041       C  0.35610393  0.74907404  0.27964887     0.29100
C4042       C  0.37391593  0.74397367  0.27079709    -0.21700
C4043       C  0.38840030  0.75770304  0.26843734    -0.09800
C4044       C  0.38439724  0.77671014  0.27426212     0.29100
F4045       F  0.39754498  0.79062676  0.27172179    -0.20300
H4046       H  0.36475340  0.79657658  0.28733746     0.17500
H4047       H  0.37661331  0.72920817  0.26635157     0.17500
F4048       F  0.34264623  0.73546053  0.28207526    -0.20300
C4049       C  0.28056663  0.73797178  0.38889847    -0.21700
C4050       C  0.26394971  0.73797614  0.37743888    -0.09800
C4051       C  0.24603363  0.73486210  0.38640933     0.29100
C4052       C  0.24478917  0.73295860  0.40642890    -0.21700
C4053       C  0.26120584  0.73490279  0.41789522    -0.09800
C4054       C  0.27917925  0.73703724  0.40890981     0.29100
F4055       F  0.29534610  0.73888337  0.41952576    -0.20300
H4056       H  0.29456097  0.74040425  0.38253798     0.17500
H4057       H  0.23080484  0.73120151  0.41308726     0.17500
F4058       F  0.22961375  0.73476593  0.37597959    -0.20300
C4059       C  0.22846402  0.89892657  0.27244133    -0.21700
C4060       C  0.23476661  0.91547488  0.28245003    -0.09800
C4061       C  0.24612446  0.91261251  0.29878009     0.29100
C4062       C  0.25077747  0.89411164  0.30496845    -0.21700
C4063       C  0.24429031  0.87748333  0.29538512    -0.09800
C4064       C  0.23324564  0.88013509  0.27873108     0.29100
F4065       F  0.22667853  0.86474982  0.26884561    -0.20300
H4066       H  0.21973847  0.90051348  0.25973612     0.17500
H4067       H  0.25960354  0.89292108  0.31765426     0.17500
F4068       F  0.25245431  0.92770093  0.30928013    -0.20300
C4069       C  0.63947429  0.00514563  0.71144877    -0.21700
C4070       C  0.64743428  0.01391591  0.72768602    -0.09800
C4071       C  0.63485753  0.02310293  0.74102381     0.29100
C4072       C  0.61502014  0.02503962  0.73712214    -0.21700
C4073       C  0.60719283  0.01716033  0.72028606    -0.09800
C4074       C  0.61961622  0.00650068  0.70791703     0.29100
F4075       F  0.61281147  0.99913783  0.69125546    -0.20300
H4076       H  0.64875151  0.99758229  0.70119730     0.17500
H4077       H  0.60605803  0.03405114  0.74646240     0.17500
F4078       F  0.64195104  0.03149765  0.75706652    -0.20300
C4079       C  0.48782539  0.13963943  0.68106196    -0.21700
C4080       C  0.48133090  0.12444102  0.69234558    -0.09800
C4081       C  0.46963043  0.12903006  0.70839892     0.29100
C4082       C  0.46535591  0.14835465  0.71342911    -0.21700
C4083       C  0.47306104  0.16360856  0.70287337    -0.09800
C4084       C  0.48372714  0.15891432  0.68612204     0.29100
F4085       F  0.49084073  0.17296392  0.67495061    -0.20300
H4086       H  0.49750909  0.13663467  0.66911652     0.17500
H4087       H  0.45701118  0.15137522  0.72633335     0.17500
F4088       F  0.46340520  0.11485947  0.71994801    -0.20300
C4089       C  0.47919532  0.03409067  0.57465894    -0.21700
C4090       C  0.48747592  0.01774334  0.56538969    -0.09800
C4091       C  0.49815368  0.00471360  0.57654186     0.29100
C4092       C  0.50198663  0.00890256  0.59588082    -0.21700
C4093       C  0.49491378  0.02594443  0.60487569    -0.09800
C4094       C  0.48247858  0.03792998  0.59427799     0.29100
F4095       F  0.47455898  0.05401037  0.60246859    -0.20300
H4096       H  0.47051693  0.04418110  0.56655221     0.17500
H4097       H  0.51152004  0.99925188  0.60358558     0.17500
F4098       F  0.50625672  0.98867899  0.56837771    -0.20300
C4099       C  0.62657235  0.99111368  0.61921795    -0.21700
C4100       C  0.64462769  0.99913733  0.62226176    -0.09800
C4101       C  0.64783834  0.00863275  0.63989386     0.29100
C4102       C  0.63208163  0.01578356  0.65043012    -0.21700
C4103       C  0.61336669  0.01214092  0.64414045    -0.09800
C4104       C  0.61081283  0.99775843  0.63000486     0.29100
F4105       F  0.59303511  0.99186444  0.62493207    -0.20300
H4106       H  0.62397462  0.98254589  0.60647037     0.17500
H4107       H  0.63455652  0.02563391  0.66224257     0.17500
F4108       F  0.66569531  0.01438814  0.64487627    -0.20300
C4109       C  0.75284453  0.01760546  0.63546263    -0.21700
C4110       C  0.74248115  0.00520930  0.64721682    -0.09800
C4111       C  0.73061079  0.99159607  0.63854638     0.29100
C4112       C  0.72754038  0.99185551  0.61870359    -0.21700
C4113       C  0.73554395  0.00622801  0.60726289    -0.09800
C4114       C  0.74938430  0.01816162  0.61562289     0.29100
F4115       F  0.75716547  0.03243556  0.60521577    -0.20300
H4116       H  0.76234314  0.02797920  0.64184358     0.17500
H4117       H  0.71656493  0.98271967  0.61280856     0.17500
F4118       F  0.72093966  0.97890614  0.64944533    -0.20300
C4119       C  0.67366974  0.13430338  0.50807499    -0.21700
C4120       C  0.68847667  0.12043366  0.50570317    -0.09800
C4121       C  0.70655084  0.12606514  0.49895508     0.29100
C4122       C  0.70994441  0.14541661  0.49541638    -0.21700
C4123       C  0.69553571  0.15954142  0.49909623    -0.09800
C4124       C  0.67715134  0.15373431  0.50494334     0.29100
F4125       F  0.66271346  0.16684299  0.50815346    -0.20300
H4126       H  0.65982210  0.13026887  0.51384295     0.17500
H4127       H  0.72420862  0.14945780  0.49079858     0.17500
F4128       F  0.72124222  0.11300048  0.49698043    -0.20300
C4129       C  0.57692616  0.03131120  0.48625125    -0.21700
C4130       C  0.56141266  0.03005103  0.49931605    -0.09800
C4131       C  0.56547545  0.03012724  0.51901859     0.29100
C4132       C  0.58454496  0.03103000  0.52541750    -0.21700
C4133       C  0.60013196  0.03231464  0.51243089    -0.09800
C4134       C  0.59604295  0.03278319  0.49269979     0.29100
F4135       F  0.61052311  0.03397602  0.47963274    -0.20300
H4136       H  0.57422370  0.03106541  0.47097940     0.17500
H4137       H  0.58711211  0.03080935  0.54071298     0.17500
F4138       F  0.55107783  0.02835418  0.53211430    -0.20300
C4139       C  0.61385371  0.09412836  0.73475390    -0.21700
C4140       C  0.59412669  0.09891914  0.73533106    -0.09800
C4141       C  0.58835111  0.11694684  0.74298525     0.29100
C4142       C  0.60168933  0.13163917  0.74359386    -0.21700
C4143       C  0.62058890  0.12791812  0.73707296    -0.09800
C4144       C  0.62722420  0.10869253  0.73570964     0.29100
F4145       F  0.64597727  0.10433541  0.73161556    -0.20300
H4146       H  0.61875530  0.07988911  0.73025732     0.17500
H4147       H  0.59646091  0.14623388  0.74601972     0.17500
F4148       F  0.56947364  0.12142529  0.74618162    -0.20300
C4149       C  0.70900520  0.10181267  0.65497702    -0.21700
C4150       C  0.71194824  0.12075958  0.64918242    -0.09800
C4151       C  0.72286258  0.12387360  0.63240066     0.29100
C4152       C  0.72657540  0.10868383  0.61969495    -0.21700
C4153       C  0.71911524  0.09056384  0.62348350    -0.09800
C4154       C  0.71289070  0.08661756  0.64229089     0.29100
F4155       F  0.70746959  0.06875645  0.64737897    -0.20300
H4156       H  0.70160530  0.09886558  0.66831243     0.17500
H4157       H  0.73252841  0.11183580  0.60570489     0.17500
F4158       F  0.72749734  0.14180985  0.62681091    -0.20300
C4159       C  0.72128219  0.11635386  0.70562257    -0.21700
C4160       C  0.71326253  0.12692740  0.72119751    -0.09800
C4161       C  0.71109975  0.11754141  0.73878947     0.29100
C4162       C  0.71577987  0.09789612  0.74039609    -0.21700
C4163       C  0.72217374  0.08698259  0.72436194    -0.09800
C4164       C  0.72553513  0.09657319  0.70708332     0.29100
F4165       F  0.73256829  0.08676251  0.69154155    -0.20300
H4166       H  0.72265883  0.12306938  0.69177645     0.17500
H4167       H  0.71333996  0.09092675  0.75397752     0.17500
F4168       F  0.70276297  0.12696716  0.75394270    -0.20300
C4169       C  0.67852937  0.24326253  0.60355578    -0.21700
C4170       C  0.69236575  0.23814895  0.61720037    -0.09800
C4171       C  0.71191310  0.23699942  0.61131703     0.29100
C4172       C  0.71714744  0.23922505  0.59196647    -0.21700
C4173       C  0.70301600  0.24223502  0.57799528    -0.09800
C4174       C  0.68367682  0.24507755  0.58417171     0.29100
F4175       F  0.66948526  0.24866704  0.57133656    -0.20300
H4176       H  0.66342929  0.24405101  0.60755263     0.17500
H4177       H  0.73209849  0.23718166  0.58774781     0.17500
F4178       F  0.72583915  0.23222683  0.62406545    -0.20300
C4179       C  0.58161007  0.24986688  0.69191510    -0.21700
C4180       C  0.59488363  0.24717334  0.70681419    -0.09800
C4181       C  0.58854561  0.25057926  0.72583323     0.29100
C4182       C  0.56915580  0.25539279  0.72986294    -0.21700
C4183       C  0.55558877  0.25635495  0.71506872    -0.09800
C4184       C  0.56211461  0.25413420  0.69598251     0.29100
F4185       F  0.54937187  0.25489080  0.68133308    -0.20300
H4186       H  0.58591542  0.24680140  0.67721735     0.17500
H4187       H  0.56445039  0.25675186  0.74466661     0.17500
F4188       F  0.60081036  0.24768442  0.74062960    -0.20300
C4189       C  0.48522802  0.09850974  0.59735782    -0.21700
C4190       C  0.48622660  0.10582507  0.61607312    -0.09800
C4191       C  0.47827183  0.12399044  0.62042181     0.29100
C4192       C  0.47219314  0.13591406  0.60564181    -0.21700
C4193       C  0.47467431  0.12986534  0.58646683    -0.09800
C4194       C  0.47885183  0.11030963  0.58259190     0.29100
F4195       F  0.47975403  0.10349634  0.56428021    -0.20300
H4196       H  0.49122111  0.08442231  0.59385769     0.17500
H4197       H  0.46845387  0.15072535  0.60913783     0.17500
F4198       F  0.47848913  0.13098908  0.63861756    -0.20300
C4199       C  0.60138044  0.22911741  0.58779525    -0.21700
C4200       C  0.58230653  0.23425801  0.59257989    -0.09800
C4201       C  0.57828564  0.24258966  0.61064945     0.29100
C4202       C  0.59266702  0.24292542  0.62468837    -0.21700
C4203       C  0.61105208  0.23503804  0.62063501    -0.09800
C4204       C  0.61571443  0.22959927  0.60167925     0.29100
F4205       F  0.63328586  0.22164137  0.59745920    -0.20300
H4206       H  0.60469392  0.22246536  0.57400580     0.17500
H4207       H  0.58873038  0.24691589  0.63927490     0.17500
F4208       F  0.55995613  0.24780824  0.61554665    -0.20300
C4209       C  0.58536565  0.09120422  0.52555467    -0.21700
C4210       C  0.60376133  0.09587552  0.51895884    -0.09800
C4211       C  0.60599627  0.11211476  0.50753166     0.29100
C4212       C  0.59030568  0.12466336  0.50466493    -0.21700
C4213       C  0.57227592  0.12118022  0.51324098    -0.09800
C4214       C  0.56971480  0.10364044  0.52273164     0.29100
F4215       F  0.55258552  0.09915010  0.53079826    -0.20300
H4216       H  0.58340059  0.07853712  0.53418115     0.17500
H4217       H  0.59274641  0.13788466  0.49708921     0.17500
F4218       F  0.62367141  0.11698321  0.50100330    -0.20300
C4219       C  0.58971447  0.23495887  0.48873904    -0.21700
C4220       C  0.58442580  0.23722937  0.50820166    -0.09800
C4221       C  0.59875727  0.24127399  0.52166695     0.29100
C4222       C  0.61803464  0.24127487  0.51597232    -0.21700
C4223       C  0.62348057  0.23732963  0.49680040    -0.09800
C4224       C  0.60908093  0.23507925  0.48303091     0.29100
F4225       F  0.61373516  0.23158309  0.46437673    -0.20300
H4226       H  0.57892844  0.23176878  0.47809798     0.17500
H4227       H  0.62882918  0.24369819  0.52681996     0.17500
F4228       F  0.59445416  0.24329866  0.54061981    -0.20300
C4229       C  0.51189687  0.23574066  0.62242513    -0.21700
C4230       C  0.49751418  0.23966051  0.60886690    -0.09800
C4231       C  0.47910927  0.24556143  0.61537806     0.29100
C4232       C  0.47509578  0.24699026  0.63502374    -0.21700
C4233       C  0.48918510  0.24217143  0.64869195    -0.09800
C4234       C  0.50780623  0.23683167  0.64214036     0.29100
F4235       F  0.52198891  0.23234761  0.65469781    -0.20300
H4236       H  0.52599784  0.23056987  0.61774470     0.17500
H4237       H  0.46064818  0.25124623  0.63951502     0.17500
F4238       F  0.46477255  0.24922940  0.60271956    -0.20300
C4239       C  0.48258362  0.13161584  0.46766991    -0.21700
C4240       C  0.47357426  0.13782821  0.48481779    -0.09800
C4241       C  0.46198540  0.12493052  0.49479835     0.29100
C4242       C  0.46265926  0.10545342  0.49001390    -0.21700
C4243       C  0.47404981  0.09872003  0.47459888    -0.09800
C4244       C  0.48257057  0.11209731  0.46235362     0.29100
F4245       F  0.49271392  0.10609641  0.44661016    -0.20300
H4246       H  0.49166853  0.14128024  0.45980810     0.17500
H4247       H  0.45536261  0.09543914  0.49919883     0.17500
F4248       F  0.45296495  0.13057390  0.51132768    -0.20300
C4249       C  0.45095209  0.25621574  0.86305106    -0.21700
C4250       C  0.43748838  0.27122462  0.86681204    -0.09800
C4251       C  0.42917194  0.28067202  0.85106872     0.29100
C4252       C  0.43428598  0.27561512  0.83224975    -0.21700
C4253       C  0.44811567  0.26105841  0.82817060    -0.09800
C4254       C  0.45633074  0.25120955  0.84393654     0.29100
F4255       F  0.46979706  0.23705354  0.84099720    -0.20300
H4256       H  0.45785893  0.24891150  0.87485863     0.17500
H4257       H  0.42751884  0.28357440  0.82078590     0.17500
F4258       F  0.41616852  0.29528399  0.85389947    -0.20300
C4259       C  0.34974043  0.24595462  0.95804045    -0.21700
C4260       C  0.36309669  0.24940519  0.97264331    -0.09800
C4261       C  0.35682584  0.24779666  0.99187694     0.29100
C4262       C  0.33730819  0.24505470  0.99623255    -0.21700
C4263       C  0.32358889  0.24379674  0.98158485    -0.09800
C4264       C  0.33025850  0.24319094  0.96238820     0.29100
F4265       F  0.31786247  0.24071562  0.94766646    -0.20300
H4266       H  0.35400948  0.24694111  0.94312039     0.17500
H4267       H  0.33279310  0.24508539  0.01112828     0.17500
F4268       F  0.36930261  0.25018918  0.00656034    -0.20300
C4269       C  0.47138262  0.38841163  0.97121529    -0.21700
C4270       C  0.46375779  0.37594144  0.98487322    -0.09800
C4271       C  0.45942574  0.38334505  0.00333417     0.29100
C4272       C  0.46222510  0.40283529  0.00779909    -0.21700
C4273       C  0.46858445  0.41554962  0.99369285    -0.09800
C4274       C  0.47362588  0.40798645  0.97546340     0.29100
F4275       F  0.48024416  0.41964093  0.96153026    -0.20300
H4276       H  0.47396404  0.38335369  0.95665058     0.17500
H4277       H  0.45826454  0.40823688  0.02194055     0.17500
F4278       F  0.45080212  0.37209412  0.01648547    -0.20300
C4279       C  0.32996217  0.25475401  0.87638635    -0.21700
C4280       C  0.33920650  0.25258103  0.85849495    -0.09800
C4281       C  0.35947097  0.25110524  0.85785490     0.29100
C4282       C  0.37019075  0.25462754  0.87432604    -0.21700
C4283       C  0.36088059  0.26013762  0.89146398    -0.09800
C4284       C  0.34071435  0.25895646  0.89276336     0.29100
F4285       F  0.33134816  0.26374075  0.90934273    -0.20300
H4286       H  0.31439741  0.25596875  0.87724675     0.17500
H4287       H  0.38571876  0.25541311  0.87305242     0.17500
F4288       F  0.36896018  0.24883715  0.84088779    -0.20300
C4289       C  0.34970312  0.23741438  0.75543069    -0.21700
C4290       C  0.34402514  0.24002570  0.77472643    -0.09800
C4291       C  0.35798060  0.23741928  0.78903829     0.29100
C4292       C  0.37754210  0.23561704  0.78407579    -0.21700
C4293       C  0.38330207  0.23502077  0.76476570    -0.09800
C4294       C  0.36916051  0.23453208  0.75049394     0.29100
F4295       F  0.37431210  0.23323619  0.73170208    -0.20300
H4296       H  0.33926975  0.23921681  0.74409057     0.17500
H4297       H  0.38824773  0.23553922  0.79529191     0.17500
F4298       F  0.35297098  0.23880776  0.80780364    -0.20300
C4299       C  0.22613267  0.37790234  0.77084025    -0.21700
C4300       C  0.24337799  0.36997602  0.76322023    -0.09800
C4301       C  0.25458044  0.38117486  0.75097032     0.29100
C4302       C  0.24987030  0.40050390  0.74820028    -0.21700
C4303       C  0.23368791  0.40900693  0.75726594    -0.09800
C4304       C  0.22117029  0.39732788  0.76772112     0.29100
F4305       F  0.20533152  0.40513249  0.77655603    -0.20300
H4306       H  0.21749382  0.36963509  0.78060245     0.17500
H4307       H  0.25955708  0.40916569  0.73986270     0.17500
F4308       F  0.27125782  0.37388938  0.74329894    -0.20300
C4309       C  0.25132963  0.23917616  0.89694490    -0.21700
C4310       C  0.23428824  0.24786058  0.90440530    -0.09800
C4311       C  0.22266389  0.25874981  0.89210449     0.29100
C4312       C  0.22923962  0.26281730  0.87349148    -0.21700
C4313       C  0.24732117  0.25576322  0.86669039    -0.09800
C4314       C  0.25770509  0.24287042  0.87823031     0.29100
F4315       F  0.27514373  0.23573053  0.87238443    -0.20300
H4316       H  0.26048490  0.23058681  0.90616357     0.17500
H4317       H  0.22089562  0.27278916  0.86491806     0.17500
F4318       F  0.20606356  0.26715084  0.89872371    -0.20300
C4319       C  0.46774024  0.40237290  0.88909562    -0.21700
C4320       C  0.45680931  0.41948972  0.89072634    -0.09800
C4321       C  0.44539274  0.42259617  0.90732975     0.29100
C4322       C  0.44040278  0.40693594  0.91844666    -0.21700
C4323       C  0.44755837  0.38856424  0.91348033    -0.09800
C4324       C  0.46289213  0.38675791  0.90023253     0.29100
F4325       F  0.47174185  0.36951866  0.89658593    -0.20300
H4326       H  0.47766085  0.40001593  0.87719274     0.17500
H4327       H  0.42944105  0.40887721  0.92947088     0.17500
F4328       F  0.43638102  0.43978042  0.91085520    -0.20300
C4329       C  0.35547350  0.39101311  0.76040838    -0.21700
C4330       C  0.37363881  0.38616411  0.76771462    -0.09800
C4331       C  0.37906521  0.36669456  0.76921812     0.29100
C4332       C  0.36577721  0.35236415  0.76515390    -0.21700
C4333       C  0.34671614  0.35736657  0.76038223    -0.09800
C4334       C  0.34204481  0.37677753  0.75681490     0.29100
F4335       F  0.32372295  0.38218262  0.75238339    -0.20300
H4336       H  0.35091830  0.40590756  0.75946677     0.17500
H4337       H  0.36961779  0.33759773  0.76837508     0.17500
F4338       F  0.39634218  0.36162083  0.77680336    -0.20300
C4339       C  0.43866258  0.36469273  0.76029848    -0.21700
C4340       C  0.45080839  0.37454730  0.77293471    -0.09800
C4341       C  0.46762883  0.36480545  0.77928844     0.29100
C4342       C  0.47163240  0.34562443  0.77385128    -0.21700
C4343       C  0.45881425  0.33540237  0.76234152    -0.09800
C4344       C  0.44241814  0.34526966  0.75530279     0.29100
F4345       F  0.42994767  0.33607436  0.74366620    -0.20300
H4346       H  0.42571388  0.37171865  0.75505234     0.17500
H4347       H  0.48441358  0.33847280  0.77934703     0.17500
F4348       F  0.48009062  0.37370440  0.79117386    -0.20300
C4349       C  0.35864058  0.49368403  0.75523566    -0.21700
C4350       C  0.36441544  0.47432500  0.75751278    -0.09800
C4351       C  0.35007176  0.46043266  0.75834685     0.29100
C4352       C  0.33057617  0.46592155  0.75845850    -0.21700
C4353       C  0.32468147  0.48538742  0.75735017    -0.09800
C4354       C  0.33902821  0.49917785  0.75489057     0.29100
F4355       F  0.33423527  0.51803915  0.75298835    -0.20300
H4356       H  0.36936798  0.50472307  0.75463288     0.17500
H4357       H  0.32005694  0.45476448  0.75988301     0.17500
F4358       F  0.35479723  0.44163441  0.76072589    -0.20300
C4359       C  0.47907140  0.48988226  0.88504597    -0.21700
C4360       C  0.46471024  0.50061810  0.87560965    -0.09800
C4361       C  0.45561995  0.51598287  0.88581239     0.29100
C4362       C  0.46003846  0.51972327  0.90517530    -0.21700
C4363       C  0.47320085  0.50788903  0.91499235    -0.09800
C4364       C  0.48315108  0.49331737  0.90451585     0.29100
F4365       F  0.49602982  0.48161469  0.91345496    -0.20300
H4366       H  0.48573234  0.47750393  0.87792451     0.17500
H4367       H  0.45197319  0.53084863  0.91291948     0.17500
F4368       F  0.44100540  0.52611595  0.87761096    -0.20300
C4369       C  0.36829501  0.50769862  0.90099236    -0.21700
C4370       C  0.34936971  0.50188458  0.89805711    -0.09800
C4371       C  0.34097838  0.50446541  0.87996756     0.29100
C4372       C  0.35279952  0.50816148  0.86419867    -0.21700
C4373       C  0.37279044  0.50892171  0.86674538    -0.09800
C4374       C  0.37989933  0.51192816  0.88534821     0.29100
F4375       F  0.39902400  0.51431096  0.88824069    -0.20300
H4376       H  0.37489857  0.50667764  0.91489119     0.17500
H4377       H  0.34685602  0.50663110  0.84995928     0.17500
F4378       F  0.32231079  0.49998486  0.87694509    -0.20300
C4379       C  0.31007770  0.35910387  0.88943854    -0.21700
C4380       C  0.29562441  0.36240146  0.90317517    -0.09800
C4381       C  0.27625360  0.36021436  0.89802523     0.29100
C4382       C  0.27139664  0.35832502  0.87879563    -0.21700
C4383       C  0.28580375  0.35793858  0.86460257    -0.09800
C4384       C  0.30528084  0.35766874  0.87016041     0.29100
F4385       F  0.31974795  0.35693542  0.85702596    -0.20300
H4386       H  0.32505605  0.36098727  0.89316430     0.17500
H4387       H  0.25632760  0.35787904  0.87494807     0.17500
F4388       F  0.26196470  0.36377958  0.91106282    -0.20300
C4389       C  0.34320636  0.37102357  0.01502493    -0.21700
C4390       C  0.34890263  0.39003100  0.01201549    -0.09800
C4391       C  0.36836766  0.39445534  0.01471884     0.29100
C4392       C  0.38216375  0.37955761  0.01502233    -0.21700
C4393       C  0.37648092  0.36042598  0.01254556    -0.09800
C4394       C  0.35702553  0.35616082  0.01553212     0.29100
F4395       F  0.35106853  0.33773860  0.01479117    -0.20300
H4396       H  0.32817693  0.36733448  0.01390407     0.17500
H4397       H  0.39721926  0.38313440  0.01365112     0.17500
F4398       F  0.37443298  0.41277852  0.01325568    -0.20300
C4399       C  0.27910788  0.47325052  0.83826071    -0.21700
C4400       C  0.26327369  0.48584791  0.83582822    -0.09800
C4401       C  0.25619213  0.49602605  0.85226512     0.29100
C4402       C  0.26392628  0.49249732  0.87064925    -0.21700
C4403       C  0.27899497  0.47897961  0.87300118    -0.09800
C4404       C  0.28688195  0.46993508  0.85638768     0.29100
F4405       F  0.30178913  0.45708557  0.85777559    -0.20300
H4406       H  0.28536640  0.46550458  0.82610251     0.17500
H4407       H  0.25746324  0.49955873  0.88309819     0.17500
F4408       F  0.24137317  0.50891331  0.85077481    -0.20300
C4409       C  0.24547763  0.34042035  0.99010529    -0.21700
C4410       C  0.25070661  0.32595454  0.97646497    -0.09800
C4411       C  0.26070162  0.33143385  0.95988665     0.29100
C4412       C  0.26625084  0.35044371  0.95764935    -0.21700
C4413       C  0.26201919  0.36461310  0.97171475    -0.09800
C4414       C  0.25109502  0.35957355  0.98779292     0.29100
F4415       F  0.24705961  0.37272604  0.00183390    -0.20300
H4416       H  0.23770351  0.33677681  0.00302948     0.17500
H4417       H  0.27472971  0.35397853  0.94513519     0.17500
F4418       F  0.26559718  0.31840028  0.94598471    -0.20300
C4419       C  0.36264579  0.50038626  0.99629280    -0.21700
C4420       C  0.35658006  0.49762513  0.97730784    -0.09800
C4421       C  0.37081884  0.49652532  0.96281155     0.29100
C4422       C  0.39049188  0.49666915  0.96726839    -0.21700
C4423       C  0.39655498  0.49849615  0.98632377    -0.09800
C4424       C  0.38230280  0.50103572  0.00077287     0.29100
F4425       F  0.38729459  0.50315613  0.01943813    -0.20300
H4426       H  0.35214999  0.50107970  0.00785784     0.17500
H4427       H  0.40099985  0.49510693  0.95576866     0.17500
F4428       F  0.36580554  0.49353272  0.94441317    -0.20300
C4429       C  0.98384839  0.74004992  0.86912616    -0.21700
C4430       C  0.98423062  0.75885834  0.87646961    -0.09800
C4431       C  0.99076510  0.77367302  0.86476714     0.29100
C4432       C  0.99412457  0.77022751  0.84525593    -0.21700
C4433       C  0.99222978  0.75169837  0.83761137    -0.09800
C4434       C  0.98823261  0.73639278  0.84988790     0.29100
F4435       F  0.98717526  0.71814433  0.84298362    -0.20300
H4436       H  0.97891026  0.72843375  0.87798309     0.17500
H4437       H  0.99799771  0.78201007  0.83608952     0.17500
F4438       F  0.99228109  0.79176421  0.87185962    -0.20300
C4439       C  0.86550402  0.72805656  0.95274702    -0.21700
C4440       C  0.87426704  0.72993196  0.97073712    -0.09800
C4441       C  0.86326393  0.72726132  0.98739530     0.29100
C4442       C  0.84345038  0.72449890  0.98604113    -0.21700
C4443       C  0.83437559  0.72514976  0.96813305    -0.09800
C4444       C  0.84554749  0.72623480  0.95141036     0.29100
F4445       F  0.83703975  0.72697793  0.93397640    -0.20300
H4446       H  0.87374945  0.73046631  0.93980285     0.17500
H4447       H  0.83492796  0.72372734  0.99907965     0.17500
F4448       F  0.87124771  0.72966319  0.00494459    -0.20300
C4449       C  0.99034969  0.86130742  0.95260585    -0.21700
C4450       C  0.98707458  0.84826315  0.96740779    -0.09800
C4451       C  0.99058726  0.85391973  0.98645494     0.29100
C4452       C  0.99594051  0.87278674  0.99066495    -0.21700
C4453       C  0.99726294  0.88632271  0.97598864    -0.09800
C4454       C  0.99507246  0.88029358  0.95684712     0.29100
F4455       F  0.99608777  0.89312640  0.94238682    -0.20300
H4456       H  0.98733520  0.85734657  0.93788061     0.17500
H4457       H  0.99733201  0.87725428  0.00550864     0.17500
F4458       F  0.98746574  0.84161091  0.00103936    -0.20300
C4459       C  0.97157895  0.84997318  0.85060579    -0.21700
C4460       C  0.97152875  0.86959852  0.85513079    -0.09800
C4461       C  0.97507919  0.87549749  0.87408549     0.29100
C4462       C  0.97617217  0.86179917  0.88865152    -0.21700
C4463       C  0.97364114  0.84225737  0.88434090    -0.09800
C4464       C  0.97238161  0.83638551  0.86508230     0.29100
F4465       F  0.96818793  0.81796946  0.86055479    -0.20300
H4466       H  0.96838621  0.84524988  0.83613460     0.17500
H4467       H  0.97647210  0.86665507  0.90345492     0.17500
F4468       F  0.97478965  0.89444373  0.87886704    -0.20300
C4469       C  0.85287484  0.98347583  0.76723268    -0.21700
C4470       C  0.86571035  0.97626730  0.75301015    -0.09800
C4471       C  0.85824498  0.97324851  0.73450284     0.29100
C4472       C  0.83850572  0.97651088  0.73067182    -0.21700
C4473       C  0.82540543  0.98210281  0.74535409    -0.09800
C4474       C  0.83300722  0.98606743  0.76363246     0.29100
F4475       F  0.82115071  0.99191770  0.77821359    -0.20300
H4476       H  0.85799221  0.98546527  0.78170932     0.17500
H4477       H  0.83323007  0.97337404  0.71642955     0.17500
F4478       F  0.86972538  0.96541615  0.72052547    -0.20300
C4479       C  0.99475995  0.85135633  0.79089866    -0.21700
C4480       C  0.99037771  0.86314187  0.77519966    -0.09800
C4481       C  0.99419432  0.85587611  0.75657130     0.29100
C4482       C  0.00090424  0.83685183  0.75375028    -0.21700
C4483       C  0.00365950  0.82462234  0.76940993    -0.09800
C4484       C  0.00113459  0.83223393  0.78804834     0.29100
F4485       F  0.00383143  0.82082413  0.80348258    -0.20300
H4486       H  0.99166164  0.85640120  0.80536926     0.17500
H4487       H  0.00264018  0.83127251  0.73926648     0.17500
F4488       F  0.99028559  0.86683246  0.74105015    -0.20300
C4489       C  0.98500933  0.95218709  0.87769483    -0.21700
C4490       C  0.96780813  0.94298229  0.87321729    -0.09800
C4491       C  0.95557762  0.93750461  0.88829938     0.29100
C4492       C  0.96002744  0.94169810  0.90729160    -0.21700
C4493       C  0.97672399  0.95167794  0.91197411    -0.09800
C4494       C  0.98945048  0.95659382  0.89693285     0.29100
F4495       F  0.00599908  0.96587476  0.90072315    -0.20300
H4496       H  0.99453348  0.95670065  0.86632108     0.17500
H4497       H  0.94994003  0.93755380  0.91833467     0.17500
F4498       F  0.93885568  0.92844968  0.88460058    -0.20300
C4499       C  0.85921687  0.87803886  0.96478892    -0.21700
C4500       C  0.84435554  0.87516514  0.95165511    -0.09800
C4501       C  0.83911900  0.85649781  0.94666866     0.29100
C4502       C  0.84938433  0.84086979  0.95384326    -0.21700
C4503       C  0.86569093  0.84357314  0.96538956    -0.09800
C4504       C  0.87008295  0.86235631  0.97143711     0.29100
F4505       F  0.88553786  0.86570314  0.98268588    -0.20300
H4506       H  0.86318240  0.89246119  0.96889695     0.17500
H4507       H  0.84545060  0.82669843  0.94891441     0.17500
F4508       F  0.82449866  0.85339748  0.93425883    -0.20300
C4509       C  0.84766995  0.99692184  0.85218638    -0.21700
C4510       C  0.82916022  0.99040998  0.84843880    -0.09800
C4511       C  0.82510341  0.98356553  0.82979072     0.29100
C4512       C  0.84023799  0.97702307  0.81809362    -0.21700
C4513       C  0.85920992  0.97885787  0.82433672    -0.09800
C4514       C  0.86282011  0.99108754  0.84021072     0.29100
F4515       F  0.88099891  0.99495449  0.84593419    -0.20300
H4516       H  0.85097867  0.00345596  0.86591152     0.17500
H4517       H  0.83699877  0.96856411  0.80545180     0.17500
F4518       F  0.80686692  0.97950465  0.82444539    -0.20300
C4519       C  0.72626823  0.95952943  0.85075927    -0.21700
C4520       C  0.73224712  0.97609396  0.86059812    -0.09800
C4521       C  0.73230152  0.99357950  0.85076457     0.29100
C4522       C  0.72888048  0.99397092  0.83102670    -0.21700
C4523       C  0.72564975  0.97691596  0.82075778    -0.09800
C4524       C  0.72340943  0.95979474  0.83084406     0.29100
F4525       F  0.71974146  0.94319474  0.82132224    -0.20300
H4526       H  0.72612353  0.94589565  0.85803649     0.17500
H4527       H  0.73035029  0.00737556  0.82347495     0.17500
F4528       F  0.73812316  0.00980606  0.85976945    -0.20300
C4529       C  0.78594696  0.85454632  0.96435691    -0.21700
C4530       C  0.77126442  0.86777799  0.95953151    -0.09800
C4531       C  0.75213020  0.86132176  0.95936148     0.29100
C4532       C  0.74797324  0.84205305  0.96295813    -0.21700
C4533       C  0.76274737  0.82842323  0.96635823    -0.09800
C4534       C  0.78184852  0.83505492  0.96748013     0.29100
F4535       F  0.79668105  0.82267014  0.97112419    -0.20300
H4536       H  0.80077559  0.85900039  0.96440534     0.17500
H4537       H  0.73315259  0.83760955  0.96208585     0.17500
F4538       F  0.73743805  0.87350330  0.95464305    -0.20300
C4539       C  0.87262321  0.94732483  0.97199932    -0.21700
C4540       C  0.86095126  0.96286469  0.96610235    -0.09800
C4541       C  0.86901697  0.98137174  0.96661614     0.29100
C4542       C  0.88842074  0.98393189  0.97178463    -0.21700
C4543       C  0.90049244  0.96813773  0.97627643    -0.09800
C4544       C  0.89205171  0.94985769  0.97696512     0.29100
F4545       F  0.90264350  0.93425257  0.98228144    -0.20300
H4546       H  0.86704694  0.93292426  0.97167060     0.17500
H4547       H  0.89421699  0.99823694  0.97147744     0.17500
F4548       F  0.85830020  0.99699480  0.96149343    -0.20300
C4549       C  0.86588996  0.85670699  0.72411801    -0.21700
C4550       C  0.84702521  0.86172063  0.72984906    -0.09800
C4551       C  0.84147393  0.88126691  0.73026890     0.29100
C4552       C  0.85570239  0.89497397  0.73164823    -0.21700
C4553       C  0.87509103  0.88890172  0.73245886    -0.09800
C4554       C  0.88017110  0.87036023  0.72565099     0.29100
F4555       F  0.89886161  0.86431327  0.72453162    -0.20300
H4556       H  0.87031508  0.84177512  0.72239615     0.17500
H4557       H  0.85148912  0.90958214  0.73554282     0.17500
F4558       F  0.82283890  0.88674700  0.73355428    -0.20300
C4559       C  0.86863460  0.74144768  0.87577343    -0.21700
C4560       C  0.86328624  0.75156970  0.89272731    -0.09800
C4561       C  0.84676298  0.76364149  0.89239729     0.29100
C4562       C  0.83882720  0.76882269  0.87489833    -0.21700
C4563       C  0.84627346  0.76099971  0.85774032    -0.09800
C4564       C  0.86004041  0.74607961  0.85829355     0.29100
F4565       F  0.86663290  0.73759302  0.84183678    -0.20300
H4566       H  0.88088965  0.73156406  0.87562054     0.17500
H4567       H  0.82757104  0.77984256  0.87463203     0.17500
F4568       F  0.83979770  0.77240867  0.90855962    -0.20300
C4569       C  0.74381678  0.87344492  0.83211117    -0.21700
C4570       C  0.75691308  0.87676225  0.81709200    -0.09800
C4571       C  0.76073419  0.89585476  0.81214393     0.29100
C4572       C  0.75556098  0.91064579  0.82492366    -0.21700
C4573       C  0.74733258  0.90616927  0.84276944    -0.09800
C4574       C  0.73890618  0.88819198  0.84494830     0.29100
F4575       F  0.72909670  0.88391584  0.86120604    -0.20300
H4576       H  0.73945615  0.85903116  0.83549947     0.17500
H4577       H  0.76108787  0.92481175  0.82229693     0.17500
F4578       F  0.77172806  0.90001476  0.79661890    -0.20300
C4579       C  0.76905645  0.87803888  0.72904861    -0.21700
C4580       C  0.76086151  0.86625075  0.74301709    -0.09800
C4581       C  0.74701887  0.87437056  0.75574550     0.29100
C4582       C  0.74255709  0.89413931  0.75529794    -0.21700
C4583       C  0.75184882  0.90598772  0.74215570    -0.09800
C4584       C  0.76457204  0.89768014  0.72856954     0.29100
F4585       F  0.77350672  0.90881732  0.71551731    -0.20300
H4586       H  0.78029103  0.87232151  0.71959935     0.17500
H4587       H  0.73233232  0.90028985  0.76556890     0.17500
F4588       F  0.73941247  0.86362077  0.76991039    -0.20300
C4589       C  0.88455312  0.74190529  0.75801873    -0.21700
C4590       C  0.87768878  0.74924973  0.77570496    -0.09800
C4591       C  0.89050818  0.74998663  0.79121871     0.29100
C4592       C  0.91001391  0.74465796  0.78866508    -0.21700
C4593       C  0.91706021  0.73802075  0.77076079    -0.09800
C4594       C  0.90393507  0.73607001  0.75559770     0.29100
F4595       F  0.91018156  0.73025109  0.73794333    -0.20300
H4596       H  0.87510684  0.74171769  0.74573280     0.17500
H4597       H  0.91983430  0.74648057  0.80050736     0.17500
F4598       F  0.88462358  0.75759483  0.80833758    -0.20300
C4599       C  0.79089682  0.75077436  0.86720758    -0.21700
C4600       C  0.77659552  0.75681042  0.85434969    -0.09800
C4601       C  0.75730196  0.75756689  0.86055279     0.29100
C4602       C  0.75260251  0.75356172  0.87960767    -0.21700
C4603       C  0.76712697  0.74948267  0.89296611    -0.09800
C4604       C  0.78630846  0.74747925  0.88648190     0.29100
F4605       F  0.80062784  0.74280475  0.89883680    -0.20300
H4606       H  0.80582232  0.75009978  0.86267721     0.17500
H4607       H  0.73769368  0.75486035  0.88421144     0.17500
F4608       F  0.74315669  0.76331813  0.84844358    -0.20300
loop_ 
_geom_bond_atom_site_label_1 
_geom_bond_atom_site_label_2 
_geom_bond_distance 
_geom_bond_site_symmetry_2 
_ccdc_geom_bond_type 
Zr1           O2   2.433       .  S
Zr1           O3   2.422       .  S
Zr1           O4   2.485       .  S
Zr1           O7   2.452       .  S
Zr1           O9   2.365       .  S
Zr1          O10   2.382       .  S
Zr1          O11   2.423       .  S
Zr1          O12   2.430       .  S
O2           H58   0.990       .  S
O2           H66   0.990       .  S
O3           C23   1.282       .  A
O4           C25   1.294       .  A
O5          Zr15   2.421       .  S
O5           C24   1.283       .  A
O6          Zr14   2.420       .  S
O6           C25   1.282       .  A
O7           C24   1.289       .  A
O8          Zr16   2.434       .  S
O8           C23   1.285       .  A
O9          Zr14   2.382       .  S
O9          Zr16   2.359       .  S
O10         Zr15   2.362       .  S
O10         Zr16   2.362       .  S
O10          H45   0.963       .  S
O11         Zr14   2.394       .  S
O11         Zr31   2.434       .  S
O11          H48   0.966       .  S
O12         Zr15   2.396       .  S
O12         Zr31   2.423       .  S
Zr13         O38   2.438       .  S
Zr13         O32   2.368       .  S
Zr13         O40   2.421       .  S
Zr13         O28   2.402       .  S
Zr13         O19   2.387       .  S
Zr13         O20   2.389       .  S
Zr13         O21   2.370       .  S
Zr13         O22   2.381       .  S
Zr14         O33   2.435       .  S
Zr14         O26   2.435       .  S
Zr14         O27   2.426       .  S
Zr14         O20   2.405       .  S
Zr14         O21   2.370       .  S
Zr15         O17   2.435       .  S
Zr15         O39   2.437       .  S
Zr15         O41   2.423       .  S
Zr15         O19   2.399       .  S
Zr15         O22   2.358       .  S
Zr16         O42   2.436       .  S
Zr16         O43   2.433       .  S
Zr16         O18   2.440       .  S
Zr16         O19   2.395       .  S
Zr16         O20   2.398       .  S
O17          H54   0.990       .  S
O18          H49   0.990       .  S
O18          H63   0.990       .  S
O20          H46   0.966       .  S
O21         Zr31   2.358       .  S
O22         Zr31   2.355       .  S
O22          H47   0.964       .  S
C23        C4563   1.461       .  S
C24        C4600   1.475       .  S
C25        C4590   1.486       .  S
O26          H62   0.990       .  S
O27          C29   1.283       .  A
O28          C29   1.282       .  A
C29        C4550   1.471       .  S
O30         Zr31   2.434       .  S
O30          H59   0.990       .  S
Zr31         O34   2.435       .  S
Zr31         O35   2.437       .  S
Zr31         O36   2.501       .  S
O32          C37   1.269       .  A
O33          H50   0.990       .  S
O33          H65   0.990       .  S
O34          H51   0.990       .  S
O35          H55   0.990       .  S
O35          H64   0.990       .  S
O36          C37   1.294       .  A
C37        C4580   1.472       .  S
O38          H57   0.990       .  S
O38          H61   0.990       .  S
O39          H53   0.990       .  S
O39          H60   0.990       .  S
O40          C44   1.284       .  A
O41          C44   1.285       .  A
O42          H52   0.990       .  S
O43          H56   0.990       .  S
C44        C4570   1.476       .  S
Zr67         O68   2.435       .  S
Zr67         O69   2.402       .  S
Zr67         O70   2.508       .  S
Zr67         O73   2.514       .  S
Zr67         O75   2.385       .  S
Zr67         O76   2.385       .  S
Zr67         O77   2.427       .  S
Zr67         O78   2.425       .  S
O68         H124   0.990       .  S
O68         H132   0.990       .  S
O69          C89   1.278       .  A
O70          C91   1.300       .  A
O71         Zr81   2.422       .  S
O71          C90   1.282       .  A
O72         Zr80   2.399       .  S
O72          C91   1.279       .  A
O73          C90   1.301       .  A
O74         Zr82   2.437       .  S
O74          C89   1.285       .  A
O75         Zr80   2.385       .  S
O75         Zr82   2.364       .  S
O76         Zr81   2.393       .  S
O76         Zr82   2.355       .  S
O76         H111   0.964       .  S
O77         Zr80   2.401       .  S
O77         Zr97   2.415       .  S
O77         H114   0.966       .  S
O78         Zr81   2.406       .  S
O78         Zr97   2.440       .  S
Zr79        O104   2.442       .  S
Zr79         O98   2.388       .  S
Zr79        O106   2.370       .  S
Zr79         O94   2.395       .  S
Zr79         O85   2.395       .  S
Zr79         O86   2.394       .  S
Zr79         O87   2.370       .  S
Zr79         O88   2.377       .  S
Zr80         O99   2.435       .  S
Zr80         O92   2.436       .  S
Zr80         O93   2.428       .  S
Zr80         O86   2.392       .  S
Zr80         O87   2.359       .  S
Zr81         O83   2.434   1_565  S
Zr81        O105   2.439       .  S
Zr81        O107   2.450       .  S
Zr81         O85   2.394       .  S
Zr81         O88   2.369       .  S
Zr82        O108   2.438       .  S
Zr82        O109   2.438       .  S
Zr82         O84   2.437       .  S
Zr82         O85   2.403       .  S
Zr82         O86   2.389       .  S
O83         H120   0.990       .  S
O84         H115   0.991       .  S
O84         H129   0.990       .  S
O86         H112   0.966       .  S
O87         Zr97   2.358       .  S
O88         Zr97   2.376       .  S
O88         H113   0.966       .  S
C89        C4500   1.461       .  S
C90        C4540   1.506       .  S
C91        C4530   1.496       .  S
O92         H128   0.990       .  S
O93          C95   1.285       .  A
O94          C95   1.278       .  A
C95        C4573   1.471       .  S
O96         Zr97   2.434       .  S
O96         H125   0.990       .  S
Zr97        O100   2.436       .  S
Zr97        O101   2.440       .  S
Zr97        O102   2.489       .  S
O98         C103   1.268       .  A
O99         H116   0.990       .  S
O99         H131   0.990       .  S
O100        H117   0.990       .  S
O101        H121   0.990   1_565  S
O101        H130   0.990   1_565  S
O102        C103   1.289       .  A
C103       C4520   1.472       .  S
O104        H123   0.990       .  S
O104        H127   0.990       .  S
O105        H119   0.990       .  S
O105        H126   0.990       .  S
O106        C110   1.272       .  A
O107        C110   1.289       .  A
O108        H118   0.990       .  S
O109        H122   0.990       .  S
C110       C4510   1.472       .  S
Zr133       O134   2.433       .  S
Zr133       O135   2.437       .  S
Zr133       O136   2.488       .  S
Zr133       O139   2.476       .  S
Zr133       O141   2.369       .  S
Zr133       O142   2.383       .  S
Zr133       O143   2.434       .  S
Zr133       O144   2.440       .  S
O134        H190   0.990       .  S
O134        H198   0.990       .  S
O135        C155   1.283       .  A
O136        C157   1.294       .  A
O137       Zr147   2.430       .  S
O137        C156   1.285       .  A
O138       Zr146   2.388       .  S
O138        C157   1.277       .  A
O139        C156   1.293       .  A
O140       Zr148   2.421       .  S
O140        C155   1.283       .  A
O141       Zr146   2.367       .  S
O141       Zr148   2.364       .  S
O142       Zr147   2.381       .  S
O142       Zr148   2.358       .  S
O142        H177   0.964       .  S
O143       Zr146   2.383       .  S
O143       Zr163   2.439       .  S
O143        H180   0.966       .  S
O144       Zr147   2.394       .  S
O144       Zr163   2.450       .  S
Zr145       O170   2.437       .  S
Zr145       O164   2.362       .  S
Zr145       O172   2.421       .  S
Zr145       O160   2.455       .  S
Zr145       O151   2.388       .  S
Zr145       O152   2.392       .  S
Zr145       O153   2.368       .  S
Zr145       O154   2.383       .  S
Zr146       O165   2.438       .  S
Zr146       O158   2.435       .  S
Zr146       O159   2.371       .  S
Zr146       O152   2.400       .  S
Zr146       O153   2.368       .  S
Zr147       O149   2.435       .  S
Zr147       O171   2.438       .  S
Zr147       O173   2.418       .  S
Zr147       O151   2.399       .  S
Zr147       O154   2.385       .  S
Zr148       O174   2.437       .  S
Zr148       O175   2.435       .  S
Zr148       O150   2.436       .  S
Zr148       O151   2.390       .  S
Zr148       O152   2.389       .  S
O149        H186   0.990       .  S
O150        H181   0.990       .  S
O150        H195   0.990       .  S
O152        H178   0.966       .  S
O153       Zr163   2.336       .  S
O154       Zr163   2.349       .  S
O154        H179   0.965       .  S
C155       C4460   1.467       .  S
C156       C4480   1.491       .  S
C157       C4490   1.483       .  S
O158        H194   0.990       .  S
O159        C161   1.274       .  A
O160        C161   1.291       .  A
C161       C4513   1.473       .  S
O162       Zr163   2.435       .  S
O162        H191   0.990       .  S
Zr163       O166   2.435       .  S
Zr163       O167   2.439       .  S
Zr163       O168   2.550       .  S
O164        C169   1.268       .  A
O165        H182   0.990       .  S
O165        H197   0.990       .  S
O166        H183   0.990       .  S
O167        H187   0.990       .  S
O167        H196   0.990       .  S
O168        C169   1.305       .  A
C169       C4470   1.495       .  S
O170        H189   0.990       .  S
O170        H193   0.990       .  S
O171        H185   0.990       .  S
O171        H192   0.990       .  S
O172        C176   1.287       .  A
O173        C176   1.282       .  A
O174        H184   0.990       .  S
O175        H188   0.990       .  S
C176       C4553   1.471       .  S
Zr199       O200   2.442       .  S
Zr199       O201   2.406       .  S
Zr199       O202   2.447       .  S
Zr199       O205   2.422       .  S
Zr199       O207   2.380       .  S
Zr199       O208   2.405       .  S
Zr199       O209   2.414       .  S
Zr199       O210   2.376       .  S
O200        H256   0.990       .  S
O200        H264   0.990       .  S
O201        C221   1.267       .  A
O202        C223   1.287       .  A
O203       Zr213   2.457       .  S
O203        C222   1.288       .  A
O204       Zr212   2.413       .  S
O204        C223   1.280       .  A
O205        C222   1.283       .  A
O206       Zr214   2.455       .  S
O206        C221   1.280       .  A
O207       Zr212   2.370       .  S
O207       Zr214   2.377       .  S
O208       Zr213   2.390       .  S
O208       Zr214   2.398       .  S
O208        H243   0.966       .  S
O209       Zr212   2.396       .  S
O209       Zr229   2.387       .  S
O209        H246   0.965       .  S
O210       Zr213   2.370       .  S
O210       Zr229   2.358       .  S
Zr211       O236   2.436       .  S
Zr211       O230   2.448       .  S
Zr211       O238   2.435       .  S
Zr211       O226   2.431       .  S
Zr211       O217   2.418       .  S
Zr211       O218   2.417       .  S
Zr211       O219   2.380       .  S
Zr211       O220   2.384       .  S
Zr212       O231   2.439       .  S
Zr212       O224   2.435       .  S
Zr212       O225   2.402       .  S
Zr212       O218   2.394       .  S
Zr212       O219   2.385       .  S
Zr213       O215   2.436       .  S
Zr213       O237   2.436   1_556  S
Zr213       O239   2.437       .  S
Zr213       O217   2.395       .  S
Zr213       O220   2.392       .  S
Zr214       O240   2.436   1_556  S
Zr214       O241   2.436       .  S
Zr214       O216   2.438       .  S
Zr214       O217   2.427       .  S
Zr214       O218   2.407       .  S
O215        H252   0.991       .  S
O216        H247   0.990       .  S
O216        H261   0.989       .  S
O218        H244   0.966       .  S
O219       Zr229   2.369       .  S
O220       Zr229   2.367       .  S
O220        H245   0.965       .  S
C221       C4440   1.461       .  S
C222       C4503   1.479       .  S
C223       C4560   1.482       .  S
O224        H260   0.990       .  S
O225        C227   1.281       .  A
O226        C227   1.285       .  A
C227       C4430   1.464       .  S
O228       Zr229   2.435       .  S
O228        H257   0.990       .  S
Zr229       O232   2.436       .  S
Zr229       O233   2.439       .  S
Zr229       O234   2.400       .  S
O230        C235   1.286       .  A
O231        H248   0.990       .  S
O231        H263   0.990       .  S
O232        H249   0.990       .  S
O233        H253   0.990       .  S
O233        H262   0.990       .  S
O234        C235   1.278       .  A
C235       C4463   1.465       .  S
O236        H255   0.990       .  S
O236        H259   0.990       .  S
O237        H251   0.990       .  S
O237        H258   0.990       .  S
O238        C242   1.285       .  A
O239        C242   1.284       .  A
O240        H250   0.990       .  S
O241        H254   0.990       .  S
C242       C4450   1.474       .  S
Zr265       O266   2.434       .  S
Zr265       O267   2.394       .  S
Zr265       O268   2.497       .  S
Zr265       O271   2.524       .  S
Zr265       O273   2.375       .  S
Zr265       O274   2.379       .  S
Zr265       O275   2.444       .  S
Zr265       O276   2.415       .  S
O266        H322   0.990       .  S
O266        H330   0.990       .  S
O267        C287   1.278       .  A
O268        C289   1.294       .  A
O269       Zr279   2.379       .  S
O269        C288   1.275       .  A
O270       Zr278   2.423       .  S
O270        C289   1.276       .  A
O271        C288   1.302       .  A
O272       Zr280   2.473       .  S
O272        C287   1.294       .  A
O273       Zr278   2.387       .  S
O273       Zr280   2.335       .  S
O274       Zr279   2.353       .  S
O274       Zr280   2.362       .  S
O274        H309   0.965       .  S
O275       Zr278   2.411       .  S
O275       Zr295   2.433       .  S
O275        H312   0.966       .  S
O276       Zr279   2.386       .  S
O276       Zr295   2.425       .  S
Zr277       O302   2.435       .  S
Zr277       O296   2.390       .  S
Zr277       O304   2.423       .  S
Zr277       O292   2.419       .  S
Zr277       O283   2.401       .  S
Zr277       O284   2.397       .  S
Zr277       O285   2.375       .  S
Zr277       O286   2.379       .  S
Zr278       O297   2.434   1_556  S
Zr278       O290   2.435       .  S
Zr278       O291   2.439       .  S
Zr278       O284   2.403       .  S
Zr278       O285   2.378       .  S
Zr279       O281   2.436       .  S
Zr279       O303   2.438       .  S
Zr279       O305   2.370       .  S
Zr279       O283   2.390       .  S
Zr279       O286   2.357       .  S
Zr280       O306   2.435       .  S
Zr280       O307   2.435       .  S
Zr280       O282   2.435       .  S
Zr280       O283   2.392       .  S
Zr280       O284   2.413       .  S
O281        H318   0.990       .  S
O282        H313   0.990       .  S
O282        H327   0.989       .  S
O284        H310   0.966       .  S
O285       Zr295   2.376       .  S
O286       Zr295   2.352       .  S
O286        H311   0.964       .  S
C287       C4370   1.465       .  S
C288       C4403   1.497       .  S
C289       C4420   1.496       .  S
O290        H326   0.990       .  S
O291        C293   1.284       .  A
O292        C293   1.282       .  A
C293       C4390   1.480   1_556  S
O294       Zr295   2.436       .  S
O294        H323   0.990       .  S
Zr295       O298   2.435       .  S
Zr295       O299   2.436       .  S
Zr295       O300   2.501       .  S
O296        C301   1.277       .  A
O297        H314   0.990       .  S
O297        H329   0.990       .  S
O298        H315   0.990   1_556  S
O299        H319   0.990       .  S
O299        H328   0.989       .  S
O300        C301   1.296       .  A
C301       C4413   1.484       .  S
O302        H321   0.989       .  S
O302        H325   0.990       .  S
O303        H317   0.990       .  S
O303        H324   0.990       .  S
O304        C308   1.282       .  A
O305        C308   1.274       .  A
O306        H316   0.990       .  S
O307        H320   0.990       .  S
C308       C4380   1.441       .  S
Zr331       O332   2.433       .  S
Zr331       O333   2.437       .  S
Zr331       O334   2.487       .  S
Zr331       O337   2.470       .  S
Zr331       O339   2.376       .  S
Zr331       O340   2.402       .  S
Zr331       O341   2.434       .  S
Zr331       O342   2.433       .  S
O332        H388   0.990       .  S
O332        H396   0.990       .  S
O333        C353   1.284       .  A
O334        C355   1.296       .  A
O335       Zr345   2.411       .  S
O335        C354   1.271       .  A
O336       Zr344   2.426       .  S
O336        C355   1.284       .  A
O337        C354   1.287       .  A
O338       Zr346   2.430       .  S
O338        C353   1.283       .  A
O339       Zr344   2.383       .  S
O339       Zr346   2.369       .  S
O340       Zr345   2.401       .  S
O340       Zr346   2.362       .  S
O340        H375   0.965       .  S
O341       Zr344   2.389       .  S
O341       Zr361   2.434       .  S
O341        H378   0.966       .  S
O342       Zr345   2.398       .  S
O342       Zr361   2.424       .  S
Zr343       O368   2.443       .  S
Zr343       O362   2.372       .  S
Zr343       O370   2.398       .  S
Zr343       O358   2.397       .  S
Zr343       O349   2.384       .  S
Zr343       O350   2.388       .  S
Zr343       O351   2.375       .  S
Zr343       O352   2.369       .  S
Zr344       O363   2.438       .  S
Zr344       O356   2.436       .  S
Zr344       O357   2.423       .  S
Zr344       O350   2.397       .  S
Zr344       O351   2.378       .  S
Zr345       O347   2.436       .  S
Zr345       O369   2.440       .  S
Zr345       O371   2.430       .  S
Zr345       O349   2.402       .  S
Zr345       O352   2.382       .  S
Zr346       O372   2.436       .  S
Zr346       O373   2.435       .  S
Zr346       O348   2.441       .  S
Zr346       O349   2.402       .  S
Zr346       O350   2.387       .  S
O347        H384   0.990       .  S
O348        H379   0.990       .  S
O348        H393   0.989       .  S
O350        H376   0.965       .  S
O351       Zr361   2.352       .  S
O352       Zr361   2.365       .  S
O352        H377   0.966       .  S
C353       C4330   1.472       .  S
C354       C4350   1.490       .  S
C355       C4340   1.503       .  S
O356        H392   0.990       .  S
O357        C359   1.285       .  A
O358        C359   1.279       .  A
C359       C4320   1.473       .  S
O360       Zr361   2.434       .  S
O360        H389   0.990       .  S
Zr361       O364   2.435       .  S
Zr361       O365   2.438       .  S
Zr361       O366   2.522       .  S
O362        C367   1.272       .  A
O363        H380   0.990       .  S
O363        H395   0.990       .  S
O364        H381   0.990       .  S
O365        H385   0.989       .  S
O365        H394   0.990       .  S
O366        C367   1.301       .  A
C367       C4360   1.490       .  S
O368        H387   0.990       .  S
O368        H391   0.990       .  S
O369        H383   0.990       .  S
O369        H390   0.990       .  S
O370        C374   1.280       .  A
O371        C374   1.283       .  A
O372        H382   0.990       .  S
O373        H386   0.990       .  S
C374       C4373   1.468       .  S
Zr397       O398   2.435       .  S
Zr397       O399   2.450       .  S
Zr397       O400   2.473       .  S
Zr397       O403   2.492       .  S
Zr397       O405   2.391       .  S
Zr397       O406   2.386       .  S
Zr397       O407   2.440       .  S
Zr397       O408   2.418       .  S
O398        H454   0.990       .  S
O398        H462   0.990       .  S
O399        C419   1.282       .  A
O400        C421   1.293       .  A
O401       Zr411   2.401       .  S
O401        C420   1.279       .  A
O402       Zr410   2.420       .  S
O402        C421   1.280       .  A
O403        C420   1.297       .  A
O404       Zr412   2.414       .  S
O404        C419   1.272       .  A
O405       Zr410   2.397       .  S
O405       Zr412   2.348       .  S
O406       Zr411   2.390       .  S
O406       Zr412   2.384       .  S
O406        H441   0.966       .  S
O407       Zr410   2.410       .  S
O407       Zr427   2.420       .  S
O407        H444   0.966       .  S
O408       Zr411   2.389       .  S
O408       Zr427   2.411       .  S
Zr409       O434   2.441       .  S
Zr409       O428   2.407       .  S
Zr409       O436   2.438       .  S
Zr409       O424   2.412       .  S
Zr409       O415   2.389       .  S
Zr409       O416   2.409       .  S
Zr409       O417   2.384       .  S
Zr409       O418   2.392       .  S
Zr410       O429   2.434       .  S
Zr410       O422   2.436       .  S
Zr410       O423   2.465       .  S
Zr410       O416   2.400       .  S
Zr410       O417   2.382       .  S
Zr411       O413   2.435       .  S
Zr411       O435   2.440       .  S
Zr411       O437   2.408       .  S
Zr411       O415   2.393       .  S
Zr411       O418   2.385       .  S
Zr412       O438   2.437       .  S
Zr412       O439   2.434       .  S
Zr412       O414   2.438       .  S
Zr412       O415   2.371       .  S
Zr412       O416   2.389       .  S
O413        H450   0.990       .  S
O414        H445   0.990       .  S
O414        H459   0.990       .  S
O416        H442   0.964       .  S
O417       Zr427   2.388       .  S
O418       Zr427   2.373       .  S
O418        H443   0.966       .  S
C419       C4280   1.476       .  S
C420       C4313   1.493       .  S
C421       C4290   1.485       .  S
O422        H458   0.990       .  S
O423        C425   1.289       .  A
O424        C425   1.280       .  A
C425       C4333   1.477       .  S
O426       Zr427   2.436       .  S
O426        H455   0.990       .  S
Zr427       O430   2.435       .  S
Zr427       O431   2.438       .  S
Zr427       O432   2.466       .  S
O428        C433   1.278       .  A
O429        H446   0.990       .  S
O429        H461   0.990       .  S
O430        H447   0.990       .  S
O431        H451   0.990       .  S
O431        H460   0.990       .  S
O432        C433   1.288       .  A
C433       C4300   1.476       .  S
O434        H453   0.990       .  S
O434        H457   0.990       .  S
O435        H449   0.990       .  S
O435        H456   0.989       .  S
O436        C440   1.280       .  A
O437        C440   1.269       .  A
O438        H448   0.990       .  S
O439        H452   0.991       .  S
C440       C4383   1.468       .  S
Zr463       O464   2.434       .  S
Zr463       O465   2.433       .  S
Zr463       O466   2.480       .  S
Zr463       O469   2.501       .  S
Zr463       O471   2.373       .  S
Zr463       O472   2.381       .  S
Zr463       O473   2.443       .  S
Zr463       O474   2.421       .  S
O464        H520   0.990       .  S
O464        H528   0.990       .  S
O465        C485   1.285       .  A
O466        C487   1.293       .  A
O467       Zr477   2.413       .  S
O467        C486   1.282       .  A
O468       Zr476   2.415       .  S
O468        C487   1.278       .  A
O469        C486   1.297       .  A
O470       Zr478   2.438       .  S
O470        C485   1.285       .  A
O471       Zr476   2.387       .  S
O471       Zr478   2.353       .  S
O472       Zr477   2.380       .  S
O472       Zr478   2.375       .  S
O472        H507   0.965       .  S
O473       Zr476   2.402       .  S
O473       Zr493   2.429       .  S
O473        H510   0.966       .  S
O474       Zr477   2.394       .  S
O474       Zr493   2.429       .  S
Zr475       O500   2.438       .  S
Zr475       O494   2.371       .  S
Zr475       O502   2.422       .  S
Zr475       O490   2.408       .  S
Zr475       O481   2.392       .  S
Zr475       O482   2.393       .  S
Zr475       O483   2.378       .  S
Zr475       O484   2.374       .  S
Zr476       O495   2.434   1_556  S
Zr476       O488   2.434       .  S
Zr476       O489   2.443       .  S
Zr476       O482   2.403       .  S
Zr476       O483   2.371       .  S
Zr477       O479   2.434       .  S
Zr477       O501   2.436       .  S
Zr477       O503   2.423       .  S
Zr477       O481   2.396       .  S
Zr477       O484   2.372       .  S
Zr478       O504   2.437       .  S
Zr478       O505   2.437       .  S
Zr478       O480   2.441       .  S
Zr478       O481   2.401       .  S
Zr478       O482   2.394       .  S
O479        H516   0.990       .  S
O480        H511   0.990       .  S
O480        H525   0.990       .  S
O482        H508   0.966       .  S
O483       Zr493   2.366       .  S
O484       Zr493   2.341       .  S
O484        H509   0.963       .  S
C485       C4283   1.474       .  S
C486       C4250   1.498       .  S
C487       C4260   1.493       .  S
O488        H524   0.990       .  S
O489        C491   1.286       .  A
O490        C491   1.282       .  A
C491       C4393   1.476   1_556  S
O492       Zr493   2.439       .  S
O492        H521   0.990       .  S
Zr493       O496   2.437       .  S
Zr493       O497   2.440       .  S
Zr493       O498   2.511       .  S
O494        C499   1.272       .  A
O495        H512   0.990       .  S
O495        H527   0.990       .  S
O496        H513   0.990   1_556  S
O497        H517   0.990       .  S
O497        H526   0.990       .  S
O498        C499   1.299       .  A
C499       C4270   1.479       .  S
O500        H519   0.990       .  S
O500        H523   0.989       .  S
O501        H515   0.990       .  S
O501        H522   0.990       .  S
O502        C506   1.283       .  A
O503        C506   1.285       .  A
O504        H514   0.990       .  S
O505        H518   0.990       .  S
C506       C4323   1.468       .  S
Zr529       O530   2.434       .  S
Zr529       O531   2.440       .  S
Zr529       O532   2.469       .  S
Zr529       O535   2.446       .  S
Zr529       O537   2.371       .  S
Zr529       O538   2.391       .  S
Zr529       O539   2.427       .  S
Zr529       O540   2.425       .  S
O530        H586   0.990       .  S
O530        H594   0.990       .  S
O531        C551   1.284       .  A
O532        C553   1.289       .  A
O533       Zr543   2.409       .  S
O533        C552   1.276       .  A
O534       Zr542   2.407       .  S
O534        C553   1.276       .  A
O535        C552   1.286       .  A
O536       Zr544   2.428       .  S
O536        C551   1.283       .  A
O537       Zr542   2.394       .  S
O537       Zr544   2.359       .  S
O538       Zr543   2.390       .  S
O538       Zr544   2.369       .  S
O538        H573   0.965       .  S
O539       Zr542   2.397       .  S
O539       Zr559   2.420       .  S
O539        H576   0.966       .  S
O540       Zr543   2.392       .  S
O540       Zr559   2.407       .  S
Zr541       O566   2.442       .  S
Zr541       O560   2.384       .  S
Zr541       O568   2.440       .  S
Zr541       O556   2.415       .  S
Zr541       O547   2.381       .  S
Zr541       O548   2.402       .  S
Zr541       O549   2.380       .  S
Zr541       O550   2.382       .  S
Zr542       O561   2.435       .  S
Zr542       O554   2.434       .  S
Zr542       O555   2.423       .  S
Zr542       O548   2.399       .  S
Zr542       O549   2.380       .  S
Zr543       O545   2.437       .  S
Zr543       O567   2.441       .  S
Zr543       O569   2.419       .  S
Zr543       O547   2.388       .  S
Zr543       O550   2.377       .  S
Zr544       O570   2.435       .  S
Zr544       O571   2.436       .  S
Zr544       O546   2.438       .  S
Zr544       O547   2.383       .  S
Zr544       O548   2.392       .  S
O545        H582   0.989       .  S
O546        H577   0.990       .  S
O546        H591   0.990       .  S
O548        H574   0.965       .  S
O549       Zr559   2.376       .  S
O550       Zr559   2.387       .  S
O550        H575   0.965       .  S
C551       C4200   1.470       .  S
C552       C4220   1.477       .  S
C553       C4230   1.478       .  S
O554        H590   0.990       .  S
O555        C557   1.283       .  A
O556        C557   1.282       .  A
C557       C4193   1.473       .  S
O558       Zr559   2.435       .  S
O558        H587   0.990       .  S
Zr559       O562   2.435       .  S
Zr559       O563   2.437       .  S
Zr559       O564   2.461       .  S
O560        C565   1.274       .  A
O561        H578   0.990       .  S
O561        H593   0.990       .  S
O562        H579   0.990       .  S
O563        H583   0.990       .  S
O563        H592   0.990       .  S
O564        C565   1.286       .  A
C565       C4240   1.466       .  S
O566        H585   0.991       .  S
O566        H589   0.990       .  S
O567        H581   0.989       .  S
O567        H588   0.990       .  S
O568        C572   1.285       .  A
O569        C572   1.281       .  A
O570        H580   0.990       .  S
O571        H584   0.990       .  S
C572       C4213   1.484       .  S
Zr595       O596   2.434       .  S
Zr595       O597   2.445       .  S
Zr595       O598   2.500       .  S
Zr595       O601   2.487       .  S
Zr595       O603   2.374       .  S
Zr595       O604   2.387       .  S
Zr595       O605   2.429       .  S
Zr595       O606   2.438       .  S
O596        H652   0.990       .  S
O596        H660   0.990       .  S
O597        C617   1.285       .  A
O598        C619   1.298       .  A
O599       Zr609   2.418       .  S
O599        C618   1.282       .  A
O600       Zr608   2.389       .  S
O600        C619   1.276       .  A
O601        C618   1.296       .  A
O602       Zr610   2.409       .  S
O602        C617   1.280       .  A
O603       Zr608   2.383       .  S
O603       Zr610   2.374       .  S
O604       Zr609   2.390       .  S
O604       Zr610   2.357       .  S
O604        H639   0.965       .  S
O605       Zr608   2.389       .  S
O605       Zr625   2.423       .  S
O605        H642   0.966       .  S
O606       Zr609   2.394       .  S
O606       Zr625   2.438       .  S
Zr607       O632   2.439       .  S
Zr607       O626   2.367       .  S
Zr607       O634   2.406       .  S
Zr607       O622   2.427       .  S
Zr607       O613   2.388       .  S
Zr607       O614   2.387       .  S
Zr607       O615   2.372       .  S
Zr607       O616   2.378       .  S
Zr608       O627   2.436       .  S
Zr608       O620   2.434       .  S
Zr608       O621   2.402       .  S
Zr608       O614   2.396       .  S
Zr608       O615   2.364       .  S
Zr609       O611   2.435       .  S
Zr609       O633   2.440       .  S
Zr609       O635   2.435       .  S
Zr609       O613   2.397       .  S
Zr609       O616   2.379       .  S
Zr610       O636   2.437       .  S
Zr610       O637   2.436       .  S
Zr610       O612   2.436       .  S
Zr610       O613   2.392       .  S
Zr610       O614   2.384       .  S
O611        H648   0.990       .  S
O612        H643   0.990       .  S
O612        H657   0.990       .  S
O614        H640   0.966       .  S
O615       Zr625   2.348       .  S
O616       Zr625   2.358       .  S
O616        H641   0.965       .  S
C617       C4203   1.469       .  S
C618       C4180   1.488       .  S
C619       C4170   1.490       .  S
O620        H656   0.990       .  S
O621        C623   1.279       .  A
O622        C623   1.286       .  A
C623       C4150   1.476       .  S
O624       Zr625   2.435       .  S
O624        H653   0.990       .  S
Zr625       O628   2.434       .  S
Zr625       O629   2.442       .  S
Zr625       O630   2.521       .  S
O626        C631   1.270       .  A
O627        H644   0.990       .  S
O627        H659   0.990       .  S
O628        H645   0.990       .  S
O629        H649   0.990       .  S
O629        H658   0.990       .  S
O630        C631   1.299       .  A
C631       C4160   1.481       .  S
O632        H651   0.990       .  S
O632        H655   0.990       .  S
O633        H647   0.990       .  S
O633        H654   0.990       .  S
O634        C638   1.282       .  A
O635        C638   1.285       .  A
O636        H646   0.991       .  S
O637        H650   0.990       .  S
C638       C4143   1.474       .  S
Zr661       O662   2.435       .  S
Zr661       O663   2.429       .  S
Zr661       O664   2.484       .  S
Zr661       O667   2.461       .  S
Zr661       O669   2.363       .  S
Zr661       O670   2.382       .  S
Zr661       O671   2.429       .  S
Zr661       O672   2.426       .  S
O662        H718   0.990       .  S
O662        H726   0.990       .  S
O663        C683   1.283       .  A
O664        C685   1.294       .  A
O665       Zr675   2.402       .  S
O665        C684   1.279       .  A
O666       Zr674   2.444       .  S
O666        C685   1.287       .  A
O667        C684   1.290       .  A
O668       Zr676   2.414       .  S
O668        C683   1.282       .  A
O669       Zr674   2.376       .  S
O669       Zr676   2.355       .  S
O670       Zr675   2.387       .  S
O670       Zr676   2.367       .  S
O670        H705   0.966       .  S
O671       Zr674   2.399       .  S
O671       Zr691   2.439       .  S
O671        H708   0.966       .  S
O672       Zr675   2.392       .  S
O672       Zr691   2.424       .  S
Zr673       O698   2.437       .  S
Zr673       O692   2.345       .  S
Zr673       O700   2.394       .  S
Zr673       O688   2.390       .  S
Zr673       O679   2.379       .  S
Zr673       O680   2.382       .  S
Zr673       O681   2.374       .  S
Zr673       O682   2.374       .  S
Zr674       O693   2.437   1_545  S
Zr674       O686   2.437   1_545  S
Zr674       O687   2.440       .  S
Zr674       O680   2.410       .  S
Zr674       O681   2.373       .  S
Zr675       O677   2.437       .  S
Zr675       O699   2.437       .  S
Zr675       O701   2.436       .  S
Zr675       O679   2.385       .  S
Zr675       O682   2.367       .  S
Zr676       O702   2.436       .  S
Zr676       O703   2.436       .  S
Zr676       O678   2.436       .  S
Zr676       O679   2.386       .  S
Zr676       O680   2.387       .  S
O677        H714   0.990       .  S
O678        H709   0.990       .  S
O678        H723   0.990       .  S
O680        H706   0.965       .  S
O681       Zr691   2.368       .  S
O682       Zr691   2.362       .  S
O682        H707   0.966       .  S
C683       C4210   1.467       .  S
C684       C4120   1.467       .  S
C685       C4133   1.499       .  S
O686        H722   0.990   1_565  S
O687        C689   1.288       .  A
O688        C689   1.275       .  A
C689       C4100   1.473   1_545  S
O690       Zr691   2.435       .  S
O690        H719   0.990       .  S
Zr691       O694   2.435   1_545  S
Zr691       O695   2.438       .  S
Zr691       O696   2.512       .  S
O692        C697   1.269       .  A
O693        H710   0.990       .  S
O693        H725   0.990       .  S
O694        H711   0.990       .  S
O695        H715   0.990       .  S
O695        H724   0.990       .  S
O696        C697   1.298       .  A
C697       C4113   1.474       .  S
O698        H717   0.990       .  S
O698        H721   0.990       .  S
O699        H713   0.990       .  S
O699        H720   0.990       .  S
O700        C704   1.278       .  A
O701        C704   1.287       .  A
O702        H712   0.990       .  S
O703        H716   0.990       .  S
C704       C4153   1.474       .  S
Zr727       O728   2.433       .  S
Zr727       O729   2.400       .  S
Zr727       O730   2.521       .  S
Zr727       O733   2.512       .  S
Zr727       O735   2.366       .  S
Zr727       O736   2.383       .  S
Zr727       O737   2.436       .  S
Zr727       O738   2.430       .  S
O728        H784   0.990       .  S
O728        H792   0.990       .  S
O729        C749   1.277       .  A
O730        C751   1.301       .  A
O731       Zr741   2.404       .  S
O731        C750   1.280       .  A
O732       Zr740   2.402       .  S
O732        C751   1.278       .  A
O733        C750   1.301       .  A
O734       Zr742   2.445       .  S
O734        C749   1.287       .  A
O735       Zr740   2.383       .  S
O735       Zr742   2.355       .  S
O736       Zr741   2.376       .  S
O736       Zr742   2.365       .  S
O736        H771   0.965       .  S
O737       Zr740   2.395       .  S
O737       Zr757   2.432       .  S
O737        H774   0.966       .  S
O738       Zr741   2.391       .  S
O738       Zr757   2.436       .  S
Zr739       O764   2.436       .  S
Zr739       O758   2.357       .  S
Zr739       O766   2.439       .  S
Zr739       O754   2.421       .  S
Zr739       O745   2.393       .  S
Zr739       O746   2.390       .  S
Zr739       O747   2.374       .  S
Zr739       O748   2.376       .  S
Zr740       O759   2.436       .  S
Zr740       O752   2.436       .  S
Zr740       O753   2.417       .  S
Zr740       O746   2.400       .  S
Zr740       O747   2.368       .  S
Zr741       O743   2.435       .  S
Zr741       O765   2.436       .  S
Zr741       O767   2.405       .  S
Zr741       O745   2.394       .  S
Zr741       O748   2.370       .  S
Zr742       O768   2.435       .  S
Zr742       O769   2.439       .  S
Zr742       O744   2.438       .  S
Zr742       O745   2.402       .  S
Zr742       O746   2.397       .  S
O743        H780   0.990   1_545  S
O744        H775   0.990       .  S
O744        H789   0.990       .  S
O746        H772   0.966       .  S
O747       Zr757   2.351       .  S
O748       Zr757   2.341       .  S
O748        H773   0.964       .  S
C749       C4190   1.457       .  S
C750       C4093   1.503       .  S
C751       C4080   1.491       .  S
O752        H788   0.990       .  S
O753        C755   1.282       .  A
O754        C755   1.286       .  A
C755       C4140   1.474       .  S
O756       Zr757   2.434       .  S
O756        H785   0.990       .  S
Zr757       O760   2.435       .  S
Zr757       O761   2.438   1_545  S
Zr757       O762   2.529       .  S
O758        C763   1.271       .  A
O759        H776   0.990       .  S
O759        H791   0.990       .  S
O760        H777   0.990       .  S
O761        H781   0.990       .  S
O761        H790   0.990       .  S
O762        C763   1.302       .  A
C763       C4073   1.482       .  S
O764        H783   0.990       .  S
O764        H787   0.990       .  S
O765        H779   0.990       .  S
O765        H786   0.990       .  S
O766        C770   1.288       .  A
O767        C770   1.280       .  A
O768        H778   0.990       .  S
O769        H782   0.990       .  S
C770       C4103   1.475       .  S
Zr793       O794   2.440       .  S
Zr793       O795   2.447       .  S
Zr793       O796   2.453       .  S
Zr793       O799   2.456       .  S
Zr793       O801   2.382       .  S
Zr793       O802   2.384       .  S
Zr793       O803   2.408       .  S
Zr793       O804   2.398       .  S
O794        H850   0.990       .  S
O794        H858   0.990       .  S
O795        C815   1.289       .  A
O796        C817   1.288       .  A
O797       Zr807   2.466       .  S
O797        C816   1.292       .  A
O798       Zr806   2.430       .  S
O798        C817   1.283       .  A
O799        C816   1.290       .  A
O800       Zr808   2.463       .  S
O800        C815   1.288       .  A
O801       Zr806   2.403       .  S
O801       Zr808   2.377       .  S
O802       Zr807   2.400       .  S
O802       Zr808   2.377       .  S
O802        H837   0.965       .  S
O803       Zr806   2.407       .  S
O803       Zr823   2.400       .  S
O803        H840   0.966       .  S
O804       Zr807   2.394       .  S
O804       Zr823   2.385       .  S
Zr805       O830   2.439       .  S
Zr805       O824   2.456       .  S
Zr805       O832   2.432       .  S
Zr805       O820   2.467       .  S
Zr805       O811   2.420       .  S
Zr805       O812   2.409       .  S
Zr805       O813   2.374       .  S
Zr805       O814   2.387       .  S
Zr806       O825   2.438       .  S
Zr806       O818   2.435       .  S
Zr806       O819   2.455       .  S
Zr806       O812   2.392       .  S
Zr806       O813   2.391       .  S
Zr807       O809   2.435       .  S
Zr807       O831   2.440       .  S
Zr807       O833   2.470       .  S
Zr807       O811   2.397       .  S
Zr807       O814   2.399       .  S
Zr808       O834   2.437       .  S
Zr808       O835   2.436       .  S
Zr808       O810   2.436       .  S
Zr808       O811   2.406       .  S
Zr808       O812   2.416       .  S
O809        H846   0.990       .  S
O810        H841   0.990       .  S
O810        H855   0.990       .  S
O812        H838   0.966       .  S
O813       Zr823   2.382       .  S
O814       Zr823   2.378       .  S
O814        H839   0.966       .  S
C815       C4253   1.511       .  S
C816       C4343   1.497       .  S
C817       C4293   1.476       .  S
O818        H854   0.990       .  S
O819        C821   1.288       .  A
O820        C821   1.292       .  A
C821       C4083   1.507       .  S
O822       Zr823   2.435       .  S
O822        H851   0.990       .  S
Zr823       O826   2.435       .  S
Zr823       O827   2.440       .  S
Zr823       O828   2.415       .  S
O824        C829   1.289       .  A
O825        H842   0.990       .  S
O825        H857   0.990       .  S
O826        H843   0.990       .  S
O827        H847   0.990       .  S
O827        H856   0.990       .  S
O828        C829   1.281       .  A
C829       C4233   1.490       .  S
O830        H849   0.990       .  S
O830        H853   0.990       .  S
O831        H845   0.990       .  S
O831        H852   0.990       .  S
O832        C836   1.285       .  A
O833        C836   1.292       .  A
O834        H844   0.990       .  S
O835        H848   0.990       .  S
C836       C4183   1.488       .  S
Zr859       O860   2.427       .  S
Zr859       O861   2.385       .  S
Zr859       O862   2.438       .  S
Zr859       O865   2.422       .  S
Zr859       O867   2.385       .  S
Zr859       O868   2.382       .  S
Zr859       O869   2.423       .  S
Zr859       O870   2.389       .  S
O860        H916   0.990       .  S
O860        H924   0.989       .  S
O861        C881   1.277       .  A
O862        C883   1.277       .  A
O863       Zr873   2.425       .  S
O863        C882   1.282       .  A
O864       Zr872   2.405       .  S
O864        C883   1.268       .  A
O865        C882   1.285       .  A
O866       Zr874   2.522       .  S
O866        C881   1.300       .  A
O867       Zr872   2.377       .  S
O867       Zr874   2.334       .  S
O868       Zr873   2.390       .  S
O868       Zr874   2.374       .  S
O868        H903   0.966       .  S
O869       Zr872   2.408       .  S
O869       Zr889   2.379       .  S
O869        H906   0.966       .  S
O870       Zr873   2.396       .  S
O870       Zr889   2.401       .  S
Zr871       O896   2.434       .  S
Zr871       O890   2.444       .  S
Zr871       O898   2.465       .  S
Zr871       O886   2.479       .  S
Zr871       O877   2.438       .  S
Zr871       O878   2.431       .  S
Zr871       O879   2.381       .  S
Zr871       O880   2.404       .  S
Zr872       O891   2.434       .  S
Zr872       O884   2.435       .  S
Zr872       O885   2.399       .  S
Zr872       O878   2.393       .  S
Zr872       O879   2.378       .  S
Zr873       O875   2.435       .  S
Zr873       O897   2.435       .  S
Zr873       O899   2.427       .  S
Zr873       O877   2.400       .  S
Zr873       O880   2.391       .  S
Zr874       O900   2.436       .  S
Zr874       O901   2.436       .  S
Zr874       O876   2.435       .  S
Zr874       O877   2.432       .  S
Zr874       O878   2.432       .  S
O875        H912   0.990       .  S
O876        H907   0.990       .  S
O876        H921   0.990       .  S
O878        H904   0.966       .  S
O879       Zr889   2.378       .  S
O880       Zr889   2.344       .  S
O880        H905   0.961       .  S
C881       C4063   1.509       .  S
C882       C4020   1.468       .  S
C883       C4030   1.467       .  S
O884        H920   0.990       .  S
O885        C887   1.280       .  A
O886        C887   1.293       .  A
C887       C4040   1.498       .  S
O888       Zr889   2.436       .  S
O888        H917   0.990       .  S
Zr889       O892   2.435       .  S
Zr889       O893   2.445       .  S
Zr889       O894   2.424       .  S
O890        C895   1.285       .  A
O891        H908   0.989       .  S
O891        H923   0.990       .  S
O892        H909   0.990       .  S
O893        H913   0.990       .  S
O893        H922   0.990       .  S
O894        C895   1.282       .  A
C895       C4010   1.471       .  S
O896        H915   0.990       .  S
O896        H919   0.990       .  S
O897        H911   0.990       .  S
O897        H918   0.990       .  S
O898        C902   1.287       .  A
O899        C902   1.276       .  A
O900        H910   0.990       .  S
O901        H914   0.990       .  S
C902       C4050   1.491       .  S
Zr925       O926   2.435       .  S
Zr925       O927   2.449       .  S
Zr925       O928   2.480       .  S
Zr925       O931   2.477       .  S
Zr925       O933   2.371       .  S
Zr925       O934   2.380       .  S
Zr925       O935   2.447       .  S
Zr925       O936   2.443       .  S
O926        H982   0.990       .  S
O926        H990   0.990       .  S
O927        C947   1.286       .  A
O928        C949   1.288       .  A
O929       Zr939   2.427       .  S
O929        C948   1.285       .  A
O930       Zr938   2.406       .  S
O930        C949   1.269       .  A
O931        C948   1.293       .  A
O932       Zr940   2.404       .  S
O932        C947   1.280       .  A
O933       Zr938   2.394       .  S
O933       Zr940   2.367       .  S
O934       Zr939   2.368       .  S
O934       Zr940   2.356       .  S
O934        H969   0.965       .  S
O935       Zr938   2.388       .  S
O935       Zr955   2.436       .  S
O935        H972   0.966       .  S
O936       Zr939   2.388       .  S
O936       Zr955   2.444       .  S
Zr937       O962   2.439       .  S
Zr937       O956   2.387       .  S
Zr937       O964   2.444       .  S
Zr937       O952   2.461       .  S
Zr937       O943   2.404       .  S
Zr937       O944   2.385       .  S
Zr937       O945   2.388       .  S
Zr937       O946   2.389       .  S
Zr938       O957   2.432       .  S
Zr938       O950   2.436       .  S
Zr938       O951   2.388       .  S
Zr938       O944   2.413       .  S
Zr938       O945   2.380       .  S
Zr939       O941   2.438       .  S
Zr939       O963   2.437       .  S
Zr939       O965   2.398       .  S
Zr939       O943   2.397       .  S
Zr939       O946   2.381       .  S
Zr940       O966   2.437       .  S
Zr940       O967   2.435       .  S
Zr940       O942   2.439       .  S
Zr940       O943   2.386       .  S
Zr940       O944   2.357       .  S
O941        H978   0.990       .  S
O942        H973   0.990       .  S
O942        H987   0.990       .  S
O944        H970   0.962       .  S
O945       Zr955   2.375       .  S
O946       Zr955   2.335       .  S
O946        H971   0.964       .  S
C947       C4013   1.467       .  S
C948       C3983   1.497       .  S
C949       C3993   1.486       .  S
O950        H986   0.990       .  S
O951        C953   1.276       .  A
O952        C953   1.292       .  A
C953       C3970   1.455       .  S
O954       Zr955   2.439       .  S
O954        H983   0.991       .  S
Zr955       O958   2.437       .  S
Zr955       O959   2.439       .  S
Zr955       O960   2.522       .  S
O956        C961   1.275       .  A
O957        H974   0.990       .  S
O957        H989   0.990       .  S
O958        H975   0.990       .  S
O959        H979   0.990       .  S
O959        H988   0.989       .  S
O960        C961   1.300       .  A
C961       C4003   1.490       .  S
O962        H981   0.990       .  S
O962        H985   0.990       .  S
O963        H977   0.990       .  S
O963        H984   0.990       .  S
O964        C968   1.288       .  A
O965        C968   1.281       .  A
O966        H976   0.990       .  S
O967        H980   0.990       .  S
C968       C3960   1.472       .  S
Zr991       O992   2.435   1_565  S
Zr991       O993   2.431       .  S
Zr991       O994   2.483       .  S
Zr991       O997   2.456       .  S
Zr991       O999   2.367       .  S
Zr991      O1000   2.390       .  S
Zr991      O1001   2.419       .  S
Zr991      O1002   2.429       .  S
O992       H1048   0.990       .  S
O992       H1056   0.990       .  S
O993       C1013   1.283       .  A
O994       C1015   1.292       .  A
O995      Zr1005   2.417       .  S
O995       C1014   1.283       .  A
O996      Zr1004   2.382       .  S
O996       C1015   1.274       .  A
O997       C1014   1.291       .  A
O998      Zr1006   2.421       .  S
O998       C1013   1.283       .  A
O999      Zr1004   2.364       .  S
O999      Zr1006   2.357       .  S
O1000     Zr1005   2.392       .  S
O1000     Zr1006   2.356       .  S
O1000      H1035   0.964       .  S
O1001     Zr1004   2.396       .  S
O1001     Zr1021   2.422       .  S
O1001      H1038   0.966       .  S
O1002     Zr1005   2.399       .  S
O1002     Zr1021   2.429       .  S
Zr1003     O1028   2.437       .  S
Zr1003     O1022   2.354       .  S
Zr1003     O1030   2.406       .  S
Zr1003     O1018   2.444       .  S
Zr1003     O1009   2.387       .  S
Zr1003     O1010   2.385       .  S
Zr1003     O1011   2.361       .  S
Zr1003     O1012   2.382       .  S
Zr1004     O1023   2.440       .  S
Zr1004     O1016   2.436       .  S
Zr1004     O1017   2.385       .  S
Zr1004     O1010   2.394       .  S
Zr1004     O1011   2.357       .  S
Zr1005     O1007   2.435       .  S
Zr1005     O1029   2.438       .  S
Zr1005     O1031   2.434       .  S
Zr1005     O1009   2.401       .  S
Zr1005     O1012   2.377       .  S
Zr1006     O1032   2.439       .  S
Zr1006     O1033   2.432       .  S
Zr1006     O1008   2.442       .  S
Zr1006     O1009   2.393       .  S
Zr1006     O1010   2.396       .  S
O1007      H1044   0.990       .  S
O1008      H1039   0.990       .  S
O1008      H1053   0.990       .  S
O1010      H1036   0.966       .  S
O1011     Zr1021   2.341       .  S
O1012     Zr1021   2.361       .  S
O1012      H1037   0.966       .  S
C1013      C3923   1.473       .  S
C1014      C3940   1.483       .  S
C1015      C3950   1.475       .  S
O1016      H1052   0.990       .  S
O1017      C1019   1.277       .  A
O1018      C1019   1.287       .  A
C1019      C3973   1.471       .  S
O1020     Zr1021   2.434       .  S
O1020      H1049   0.990       .  S
Zr1021     O1024   2.435       .  S
Zr1021     O1025   2.440       .  S
Zr1021     O1026   2.504       .  S
O1022      C1027   1.271       .  A
O1023      H1040   0.990       .  S
O1023      H1055   0.990       .  S
O1024      H1041   0.990       .  S
O1025      H1045   0.990       .  S
O1025      H1054   0.989       .  S
O1026      C1027   1.296       .  A
C1027      C3933   1.472       .  S
O1028      H1047   0.990       .  S
O1028      H1051   0.990       .  S
O1029      H1043   0.990       .  S
O1029      H1050   0.990       .  S
O1030      C1034   1.284       .  A
O1031      C1034   1.285       .  A
O1032      H1042   0.990       .  S
O1033      H1046   0.990       .  S
C1034      C4023   1.472       .  S
Zr1057     O1058   2.441       .  S
Zr1057     O1059   2.421       .  S
Zr1057     O1060   2.438       .  S
Zr1057     O1063   2.458       .  S
Zr1057     O1065   2.393       .  S
Zr1057     O1066   2.394       .  S
Zr1057     O1067   2.441       .  S
Zr1057     O1068   2.376       .  S
O1058      H1114   0.990       .  S
O1058      H1122   0.991       .  S
O1059      C1079   1.281       .  A
O1060      C1081   1.278       .  A
O1061     Zr1071   2.410       .  S
O1061      C1080   1.278       .  A
O1062     Zr1070   2.411       .  S
O1062      C1081   1.271       .  A
O1063      C1080   1.291       .  A
O1064     Zr1072   2.489       .  S
O1064      C1079   1.292       .  A
O1065     Zr1070   2.395       .  S
O1065     Zr1072   2.356       .  S
O1066     Zr1071   2.405       .  S
O1066     Zr1072   2.387       .  S
O1066      H1101   0.966       .  S
O1067     Zr1070   2.408       .  S
O1067     Zr1087   2.361       .  S
O1067      H1104   0.962       .  S
O1068     Zr1071   2.392       .  S
O1068     Zr1087   2.373       .  S
Zr1069     O1094   2.435   1_565  S
Zr1069     O1088   2.445       .  S
Zr1069     O1096   2.481       .  S
Zr1069     O1084   2.465       .  S
Zr1069     O1075   2.437       .  S
Zr1069     O1076   2.435       .  S
Zr1069     O1077   2.379       .  S
Zr1069     O1078   2.401       .  S
Zr1070     O1089   2.435       .  S
Zr1070     O1082   2.435       .  S
Zr1070     O1083   2.426       .  S
Zr1070     O1076   2.393       .  S
Zr1070     O1077   2.380       .  S
Zr1071     O1073   2.441       .  S
Zr1071     O1095   2.440       .  S
Zr1071     O1097   2.451       .  S
Zr1071     O1075   2.385       .  S
Zr1071     O1078   2.394       .  S
Zr1072     O1098   2.435       .  S
Zr1072     O1099   2.435       .  S
Zr1072     O1074   2.438       .  S
Zr1072     O1075   2.439       .  S
Zr1072     O1076   2.419       .  S
O1073      H1110   0.990       .  S
O1074      H1105   0.990       .  S
O1074      H1119   0.990       .  S
O1076      H1102   0.966       .  S
O1077     Zr1087   2.371       .  S
O1078     Zr1087   2.344       .  S
O1078      H1103   0.961       .  S
C1079      C3890   1.502       .  S
C1080      C3963   1.449       .  S
C1081      C4033   1.474       .  S
O1082      H1118   0.990       .  S
O1083      C1085   1.284       .  A
O1084      C1085   1.292       .  A
C1085      C3900   1.487       .  S
O1086     Zr1087   2.438       .  S
O1086      H1115   0.990       .  S
Zr1087     O1090   2.437       .  S
Zr1087     O1091   2.440       .  S
Zr1087     O1092   2.416       .  S
O1088      C1093   1.284       .  A
O1089      H1106   0.990       .  S
O1089      H1121   0.990       .  S
O1090      H1107   0.990       .  S
O1091      H1111   0.991       .  S
O1091      H1120   0.990       .  S
O1092      C1093   1.277       .  A
C1093      C3920   1.471       .  S
O1094      H1113   0.990       .  S
O1094      H1117   0.990       .  S
O1095      H1109   0.990       .  S
O1095      H1116   0.990       .  S
O1096      C1100   1.293       .  A
O1097      C1100   1.280       .  A
O1098      H1108   0.990       .  S
O1099      H1112   0.990       .  S
C1100      C3910   1.501   1_565  S
Zr1123     O1124   2.442       .  S
Zr1123     O1125   2.397       .  S
Zr1123     O1126   2.454       .  S
Zr1123     O1129   2.397       .  S
Zr1123     O1131   2.377       .  S
Zr1123     O1132   2.400       .  S
Zr1123     O1133   2.406       .  S
Zr1123     O1134   2.389       .  S
O1124      H1180   0.990       .  S
O1124      H1188   0.990       .  S
O1125      C1145   1.265       .  A
O1126      C1147   1.287       .  A
O1127     Zr1137   2.440       .  S
O1127      C1146   1.285       .  A
O1128     Zr1136   2.415       .  S
O1128      C1147   1.282       .  A
O1129      C1146   1.280       .  A
O1130     Zr1138   2.464       .  S
O1130      C1145   1.281       .  A
O1131     Zr1136   2.373       .  S
O1131     Zr1138   2.381       .  S
O1132     Zr1137   2.379       .  S
O1132     Zr1138   2.381       .  S
O1132      H1167   0.966       .  S
O1133     Zr1136   2.390       .  S
O1133     Zr1153   2.379       .  S
O1133      H1170   0.964       .  S
O1134     Zr1137   2.381       .  S
O1134     Zr1153   2.370       .  S
Zr1135     O1160   2.439       .  S
Zr1135     O1154   2.471       .  S
Zr1135     O1162   2.461       .  S
Zr1135     O1150   2.466       .  S
Zr1135     O1141   2.429       .  S
Zr1135     O1142   2.424       .  S
Zr1135     O1143   2.386       .  S
Zr1135     O1144   2.389       .  S
Zr1136     O1155   2.438       .  S
Zr1136     O1148   2.434       .  S
Zr1136     O1149   2.392       .  S
Zr1136     O1142   2.400       .  S
Zr1136     O1143   2.396       .  S
Zr1137     O1139   2.437       .  S
Zr1137     O1161   2.436       .  S
Zr1137     O1163   2.402       .  S
Zr1137     O1141   2.398       .  S
Zr1137     O1144   2.399       .  S
Zr1138     O1164   2.436       .  S
Zr1138     O1165   2.436       .  S
Zr1138     O1140   2.437       .  S
Zr1138     O1141   2.426       .  S
Zr1138     O1142   2.397       .  S
O1139      H1176   0.990       .  S
O1140      H1171   0.991       .  S
O1140      H1185   0.990       .  S
O1142      H1168   0.965       .  S
O1143     Zr1153   2.385       .  S
O1144     Zr1153   2.360       .  S
O1144      H1169   0.965       .  S
C1145      C3880   1.463       .  S
C1146      C3840   1.472       .  S
C1147      C3830   1.481       .  S
O1148      H1184   0.990       .  S
O1149      C1151   1.278       .  A
O1150      C1151   1.290       .  A
C1151      C3860   1.469       .  S
O1152     Zr1153   2.436       .  S
O1152      H1181   0.990       .  S
Zr1153     O1156   2.435       .  S
Zr1153     O1157   2.440       .  S
Zr1153     O1158   2.404       .  S
O1154      C1159   1.290       .  A
O1155      H1172   0.990       .  S
O1155      H1187   0.990       .  S
O1156      H1173   0.989       .  S
O1157      H1177   0.990       .  S
O1157      H1186   0.990       .  S
O1158      C1159   1.279       .  A
C1159      C3850   1.481       .  S
O1160      H1179   0.990       .  S
O1160      H1183   0.991       .  S
O1161      H1175   0.990       .  S
O1161      H1182   0.990       .  S
O1162      C1166   1.291       .  A
O1163      C1166   1.278       .  A
O1164      H1174   0.990       .  S
O1165      H1178   0.990       .  S
C1166      C3870   1.485       .  S
Zr1189     O1190   2.434       .  S
Zr1189     O1191   2.400       .  S
Zr1189     O1192   2.504       .  S
Zr1189     O1195   2.518       .  S
Zr1189     O1197   2.373       .  S
Zr1189     O1198   2.381       .  S
Zr1189     O1199   2.439       .  S
Zr1189     O1200   2.430       .  S
O1190      H1246   0.990       .  S
O1190      H1254   0.990       .  S
O1191      C1211   1.278       .  A
O1192      C1213   1.297       .  A
O1193     Zr1203   2.385       .  S
O1193      C1212   1.275       .  A
O1194     Zr1202   2.385       .  S
O1194      C1213   1.276       .  A
O1195      C1212   1.301       .  A
O1196     Zr1204   2.437       .  S
O1196      C1211   1.286       .  A
O1197     Zr1202   2.365       .  S
O1197     Zr1204   2.359       .  S
O1198     Zr1203   2.376       .  S
O1198     Zr1204   2.354       .  S
O1198      H1233   0.963       .  S
O1199     Zr1202   2.386       .  S
O1199     Zr1219   2.425       .  S
O1199      H1236   0.966       .  S
O1200     Zr1203   2.393       .  S
O1200     Zr1219   2.458       .  S
Zr1201     O1226   2.436       .  S
Zr1201     O1220   2.359       .  S
Zr1201     O1228   2.442       .  S
Zr1201     O1216   2.460       .  S
Zr1201     O1207   2.392       .  S
Zr1201     O1208   2.399       .  S
Zr1201     O1209   2.386       .  S
Zr1201     O1210   2.386       .  S
Zr1202     O1221   2.437       .  S
Zr1202     O1214   2.436       .  S
Zr1202     O1215   2.379       .  S
Zr1202     O1208   2.398       .  S
Zr1202     O1209   2.369       .  S
Zr1203     O1205   2.436       .  S
Zr1203     O1227   2.437       .  S
Zr1203     O1229   2.396       .  S
Zr1203     O1207   2.397       .  S
Zr1203     O1210   2.360       .  S
Zr1204     O1230   2.436       .  S
Zr1204     O1231   2.437       .  S
Zr1204     O1206   2.438       .  S
Zr1204     O1207   2.408       .  S
Zr1204     O1208   2.384       .  S
O1205      H1242   0.990       .  S
O1206      H1237   0.990       .  S
O1206      H1251   0.990       .  S
O1208      H1234   0.966       .  S
O1209     Zr1219   2.340       .  S
O1210     Zr1219   2.344       .  S
O1210      H1235   0.963       .  S
C1211      C3843   1.456       .  S
C1212      C3803   1.483       .  S
C1213      C3810   1.500       .  S
O1214      H1250   0.990       .  S
O1215      C1217   1.275       .  A
O1216      C1217   1.293       .  A
C1217      C3783   1.472       .  S
O1218     Zr1219   2.434       .  S
O1218      H1247   0.990       .  S
Zr1219     O1222   2.434       .  S
Zr1219     O1223   2.441       .  S
Zr1219     O1224   2.554       .  S
O1220      C1225   1.257       .  A
O1221      H1238   0.990       .  S
O1221      H1253   0.990       .  S
O1222      H1239   0.990       .  S
O1223      H1243   0.990       .  S
O1223      H1252   0.990       .  S
O1224      C1225   1.300       .  A
C1225      C3823   1.505       .  S
O1226      H1245   0.990       .  S
O1226      H1249   0.990       .  S
O1227      H1241   0.990       .  S
O1227      H1248   0.990       .  S
O1228      C1232   1.289       .  A
O1229      C1232   1.278       .  A
O1230      H1240   0.990       .  S
O1231      H1244   0.990       .  S
C1232      C3790   1.470       .  S
Zr1255     O1256   2.436       .  S
Zr1255     O1257   2.429       .  S
Zr1255     O1258   2.478       .  S
Zr1255     O1261   2.469       .  S
Zr1255     O1263   2.378       .  S
Zr1255     O1264   2.385       .  S
Zr1255     O1265   2.434       .  S
Zr1255     O1266   2.436       .  S
O1256      H1312   0.990       .  S
O1256      H1320   0.990       .  S
O1257      C1277   1.284       .  A
O1258      C1279   1.293       .  A
O1259     Zr1269   2.444       .  S
O1259      C1278   1.285       .  A
O1260     Zr1268   2.408       .  S
O1260      C1279   1.280       .  A
O1261      C1278   1.291       .  A
O1262     Zr1270   2.435       .  S
O1262      C1277   1.286       .  A
O1263     Zr1268   2.392       .  S
O1263     Zr1270   2.371       .  S
O1264     Zr1269   2.382       .  S
O1264     Zr1270   2.353       .  S
O1264      H1299   0.962       .  S
O1265     Zr1268   2.391       .  S
O1265     Zr1285   2.431       .  S
O1265      H1302   0.966       .  S
O1266     Zr1269   2.391       .  S
O1266     Zr1285   2.445       .  S
Zr1267     O1292   2.442       .  S
Zr1267     O1286   2.378       .  S
Zr1267     O1294   2.391       .  S
Zr1267     O1282   2.420       .  S
Zr1267     O1273   2.389       .  S
Zr1267     O1274   2.392       .  S
Zr1267     O1275   2.379       .  S
Zr1267     O1276   2.381       .  S
Zr1268     O1287   2.436   1_455  S
Zr1268     O1280   2.434       .  S
Zr1268     O1281   2.419       .  S
Zr1268     O1274   2.395       .  S
Zr1268     O1275   2.373       .  S
Zr1269     O1271   2.436       .  S
Zr1269     O1293   2.441       .  S
Zr1269     O1295   2.434       .  S
Zr1269     O1273   2.401       .  S
Zr1269     O1276   2.364       .  S
Zr1270     O1296   2.435       .  S
Zr1270     O1297   2.438       .  S
Zr1270     O1272   2.438       .  S
Zr1270     O1273   2.394       .  S
Zr1270     O1274   2.381       .  S
O1271      H1308   0.990       .  S
O1272      H1303   0.990       .  S
O1272      H1317   0.990       .  S
O1274      H1300   0.966       .  S
O1275     Zr1285   2.361       .  S
O1276     Zr1285   2.371       .  S
O1276      H1301   0.965       .  S
C1277      C3833   1.476       .  S
C1278      C3760   1.490       .  S
C1279      C3750   1.482       .  S
O1280      H1316   0.990       .  S
O1281      C1283   1.284       .  A
O1282      C1283   1.284       .  A
C1283      C3740   1.475   1_455  S
O1284     Zr1285   2.437       .  S
O1284      H1313   0.990       .  S
Zr1285     O1288   2.436   1_455  S
Zr1285     O1289   2.443       .  S
Zr1285     O1290   2.507   1_455  S
O1286      C1291   1.267   1_455  A
O1287      H1304   0.990       .  S
O1287      H1319   0.990       .  S
O1288      H1305   0.990       .  S
O1289      H1309   0.991   1_455  S
O1289      H1318   0.989       .  S
O1290      C1291   1.294       .  A
C1291      C3770   1.476       .  S
O1292      H1311   0.990       .  S
O1292      H1315   0.990       .  S
O1293      H1307   0.990       .  S
O1293      H1314   0.990       .  S
O1294      C1298   1.275       .  A
O1295      C1298   1.287       .  A
O1296      H1306   0.990       .  S
O1297      H1310   0.990       .  S
C1298      C3780   1.474       .  S
Zr1321     O1322   2.436       .  S
Zr1321     O1323   2.467       .  S
Zr1321     O1324   2.469       .  S
Zr1321     O1327   2.459       .  S
Zr1321     O1329   2.373       .  S
Zr1321     O1330   2.385       .  S
Zr1321     O1331   2.433       .  S
Zr1321     O1332   2.430       .  S
O1322      H1378   0.990       .  S
O1322      H1386   0.990       .  S
O1323      C1343   1.289       .  A
O1324      C1345   1.292       .  A
O1325     Zr1335   2.400       .  S
O1325      C1344   1.279       .  A
O1326     Zr1334   2.408       .  S
O1326      C1345   1.281       .  A
O1327      C1344   1.291       .  A
O1328     Zr1336   2.410       .  S
O1328      C1343   1.280       .  A
O1329     Zr1334   2.384       .  S
O1329     Zr1336   2.370       .  S
O1330     Zr1335   2.393       .  S
O1330     Zr1336   2.380       .  S
O1330      H1365   0.966       .  S
O1331     Zr1334   2.392       .  S
O1331     Zr1351   2.430       .  S
O1331      H1368   0.966       .  S
O1332     Zr1335   2.393       .  S
O1332     Zr1351   2.426       .  S
Zr1333     O1358   2.438       .  S
Zr1333     O1352   2.350       .  S
Zr1333     O1360   2.404       .  S
Zr1333     O1348   2.391       .  S
Zr1333     O1339   2.381       .  S
Zr1333     O1340   2.381       .  S
Zr1333     O1341   2.373       .  S
Zr1333     O1342   2.373       .  S
Zr1334     O1353   2.435       .  S
Zr1334     O1346   2.435       .  S
Zr1334     O1347   2.422       .  S
Zr1334     O1340   2.395       .  S
Zr1334     O1341   2.374       .  S
Zr1335     O1337   2.436   1_455  S
Zr1335     O1359   2.437       .  S
Zr1335     O1361   2.435       .  S
Zr1335     O1339   2.385       .  S
Zr1335     O1342   2.367       .  S
Zr1336     O1362   2.436       .  S
Zr1336     O1363   2.438       .  S
Zr1336     O1338   2.437       .  S
Zr1336     O1339   2.387       .  S
Zr1336     O1340   2.387       .  S
O1337      H1374   0.990       .  S
O1338      H1369   0.990       .  S
O1338      H1383   0.990       .  S
O1340      H1366   0.966       .  S
O1341     Zr1351   2.353       .  S
O1342     Zr1351   2.355       .  S
O1342      H1367   0.965       .  S
C1343      C3853   1.479       .  S
C1344      C3710   1.480       .  S
C1345      C3723   1.487       .  S
O1346      H1382   0.990       .  S
O1347      C1349   1.284       .  A
O1348      C1349   1.281       .  A
C1349      C3793   1.477       .  S
O1350     Zr1351   2.435       .  S
O1350      H1379   0.990       .  S
Zr1351     O1354   2.433       .  S
Zr1351     O1355   2.437   1_455  S
Zr1351     O1356   2.513       .  S
O1352      C1357   1.269       .  A
O1353      H1370   0.990       .  S
O1353      H1385   0.990       .  S
O1354      H1371   0.990       .  S
O1355      H1375   0.990       .  S
O1355      H1384   0.990       .  S
O1356      C1357   1.298       .  A
C1357      C3730   1.474   1_455  S
O1358      H1377   0.990       .  S
O1358      H1381   0.990       .  S
O1359      H1373   0.990       .  S
O1359      H1380   0.989       .  S
O1360      C1364   1.280       .  A
O1361      C1364   1.287       .  A
O1362      H1372   0.990       .  S
O1363      H1376   0.990       .  S
C1364      C3743   1.477       .  S
Zr1387     O1388   2.443       .  S
Zr1387     O1389   2.480       .  S
Zr1387     O1390   2.453       .  S
Zr1387     O1393   2.466       .  S
Zr1387     O1395   2.383       .  S
Zr1387     O1396   2.388       .  S
Zr1387     O1397   2.422       .  S
Zr1387     O1398   2.413       .  S
O1388      H1444   0.991       .  S
O1388      H1452   0.991       .  S
O1389      C1409   1.291       .  A
O1390      C1411   1.287       .  A
O1391     Zr1401   2.439       .  S
O1391      C1410   1.286       .  A
O1392     Zr1400   2.415       .  S
O1392      C1411   1.279       .  A
O1393      C1410   1.290       .  A
O1394     Zr1402   2.413       .  S
O1394      C1409   1.280       .  A
O1395     Zr1400   2.401       .  S
O1395     Zr1402   2.385       .  S
O1396     Zr1401   2.397       .  S
O1396     Zr1402   2.380       .  S
O1396      H1431   0.966       .  S
O1397     Zr1400   2.396       .  S
O1397     Zr1417   2.402       .  S
O1397      H1434   0.965       .  S
O1398     Zr1401   2.390       .  S
O1398     Zr1417   2.402       .  S
Zr1399     O1424   2.443       .  S
Zr1399     O1418   2.459       .  S
Zr1399     O1426   2.459       .  S
Zr1399     O1414   2.485       .  S
Zr1399     O1405   2.409       .  S
Zr1399     O1406   2.417       .  S
Zr1399     O1407   2.386       .  S
Zr1399     O1408   2.390       .  S
Zr1400     O1419   2.437       .  S
Zr1400     O1412   2.435       .  S
Zr1400     O1413   2.411       .  S
Zr1400     O1406   2.403       .  S
Zr1400     O1407   2.402       .  S
Zr1401     O1403   2.437       .  S
Zr1401     O1425   2.436       .  S
Zr1401     O1427   2.440       .  S
Zr1401     O1405   2.394       .  S
Zr1401     O1408   2.395       .  S
Zr1402     O1428   2.435       .  S
Zr1402     O1429   2.436       .  S
Zr1402     O1404   2.439       .  S
Zr1402     O1405   2.390       .  S
Zr1402     O1406   2.386       .  S
O1403      H1440   0.990       .  S
O1404      H1435   0.990       .  S
O1404      H1449   0.990       .  S
O1406      H1432   0.963       .  S
O1407     Zr1417   2.378       .  S
O1408     Zr1417   2.381       .  S
O1408      H1433   0.966       .  S
C1409      C3763   1.496       .  S
C1410      C3813   1.491       .  S
C1411      C3883   1.471       .  S
O1412      H1448   0.990       .  S
O1413      C1415   1.279       .  A
O1414      C1415   1.293       .  A
C1415      C3930   1.474       .  S
O1416     Zr1417   2.436       .  S
O1416      H1445   0.990       .  S
Zr1417     O1420   2.435       .  S
Zr1417     O1421   2.437       .  S
Zr1417     O1422   2.429       .  S
O1418      C1423   1.288       .  A
O1419      H1436   0.990       .  S
O1419      H1451   0.990       .  S
O1420      H1437   0.990       .  S
O1421      H1441   0.990       .  S
O1421      H1450   0.990       .  S
O1422      C1423   1.282       .  A
C1423      C3990   1.495       .  S
O1424      H1443   0.990       .  S
O1424      H1447   0.991       .  S
O1425      H1439   0.990       .  S
O1425      H1446   0.990       .  S
O1426      C1430   1.290       .  A
O1427      C1430   1.285       .  A
O1428      H1438   0.990       .  S
O1429      H1442   0.990       .  S
C1430      C4053   1.484       .  S
Zr1453     O1454   2.444       .  S
Zr1453     O1455   2.489       .  S
Zr1453     O1456   2.423       .  S
Zr1453     O1459   2.438       .  S
Zr1453     O1461   2.377       .  S
Zr1453     O1462   2.381       .  S
Zr1453     O1463   2.425       .  S
Zr1453     O1464   2.416       .  S
O1454      H1510   0.990       .  S
O1454      H1518   0.990       .  S
O1455      C1475   1.293       .  A
O1456      C1477   1.282       .  A
O1457     Zr1467   2.457       .  S
O1457      C1476   1.290       .  A
O1458     Zr1466   2.468       .  S
O1458      C1477   1.291       .  A
O1459      C1476   1.285       .  A
O1460     Zr1468   2.405       .  S
O1460      C1475   1.277       .  A
O1461     Zr1466   2.410       .  S
O1461     Zr1468   2.386       .  S
O1462     Zr1467   2.410       .  S
O1462     Zr1468   2.378       .  S
O1462      H1497   0.966       .  S
O1463     Zr1466   2.410       .  S
O1463     Zr1483   2.383       .  S
O1463      H1500   0.962       .  S
O1464     Zr1467   2.386       .  S
O1464     Zr1483   2.404       .  S
Zr1465     O1490   2.446       .  S
Zr1465     O1484   2.467       .  S
Zr1465     O1492   2.445       .  S
Zr1465     O1480   2.443       .  S
Zr1465     O1471   2.407       .  S
Zr1465     O1472   2.417       .  S
Zr1465     O1473   2.374       .  S
Zr1465     O1474   2.389       .  S
Zr1466     O1485   2.437       .  S
Zr1466     O1478   2.434       .  S
Zr1466     O1479   2.479       .  S
Zr1466     O1472   2.408       .  S
Zr1466     O1473   2.404       .  S
Zr1467     O1469   2.434       .  S
Zr1467     O1491   2.439       .  S
Zr1467     O1493   2.444       .  S
Zr1467     O1471   2.390       .  S
Zr1467     O1474   2.414       .  S
Zr1468     O1494   2.436       .  S
Zr1468     O1495   2.436       .  S
Zr1468     O1470   2.440       .  S
Zr1468     O1471   2.388       .  S
Zr1468     O1472   2.375       .  S
O1469      H1506   0.990       .  S
O1470      H1501   0.990       .  S
O1470      H1515   0.990       .  S
O1472      H1498   0.962       .  S
O1473     Zr1483   2.384       .  S
O1474     Zr1483   2.377       .  S
O1474      H1499   0.966       .  S
C1475      C3800   1.505       .  S
C1476      C3720   1.493       .  S
C1477      C3873   1.479       .  S
O1478      H1514   0.990       .  S
O1479      C1481   1.294       .  A
O1480      C1481   1.287       .  A
C1481      C4353   1.499       .  S
O1482     Zr1483   2.435       .  S
O1482      H1511   0.990       .  S
Zr1483     O1486   2.435       .  S
Zr1483     O1487   2.438       .  S
Zr1483     O1488   2.432       .  S
O1484      C1489   1.290       .  A
O1485      H1502   0.990       .  S
O1485      H1517   0.990       .  S
O1486      H1503   0.990       .  S
O1487      H1507   0.990       .  S
O1487      H1516   0.990       .  S
O1488      C1489   1.281       .  A
C1489      C4400   1.508       .  S
O1490      H1509   0.990       .  S
O1490      H1513   0.991       .  S
O1491      H1505   0.990       .  S
O1491      H1512   0.990       .  S
O1492      C1496   1.287       .  A
O1493      C1496   1.286       .  A
O1494      H1504   0.990       .  S
O1495      H1508   0.990       .  S
C1496      C4303   1.481       .  S
Zr1519     O1520   2.436       .  S
Zr1519     O1521   2.469       .  S
Zr1519     O1522   2.480       .  S
Zr1519     O1525   2.474       .  S
Zr1519     O1527   2.383       .  S
Zr1519     O1528   2.382       .  S
Zr1519     O1529   2.427       .  S
Zr1519     O1530   2.427       .  S
O1520      H1576   0.990       .  S
O1520      H1584   0.990       .  S
O1521      C1541   1.290       .  A
O1522      C1543   1.294       .  A
O1523     Zr1533   2.410       .  S
O1523      C1542   1.281       .  A
O1524     Zr1532   2.401       .  S
O1524      C1543   1.278       .  A
O1525      C1542   1.295       .  A
O1526     Zr1534   2.403       .  S
O1526      C1541   1.279       .  A
O1527     Zr1532   2.403       .  S
O1527     Zr1534   2.372       .  S
O1528     Zr1533   2.384       .  S
O1528     Zr1534   2.364       .  S
O1528      H1563   0.966       .  S
O1529     Zr1532   2.405       .  S
O1529     Zr1549   2.428       .  S
O1529      H1566   0.966       .  S
O1530     Zr1533   2.390       .  S
O1530     Zr1549   2.417       .  S
Zr1531     O1556   2.442       .  S
Zr1531     O1550   2.405       .  S
Zr1531     O1558   2.417       .  S
Zr1531     O1546   2.417       .  S
Zr1531     O1537   2.402       .  S
Zr1531     O1538   2.401       .  S
Zr1531     O1539   2.371       .  S
Zr1531     O1540   2.396       .  S
Zr1532     O1551   2.435       .  S
Zr1532     O1544   2.436       .  S
Zr1532     O1545   2.456       .  S
Zr1532     O1538   2.396       .  S
Zr1532     O1539   2.379       .  S
Zr1533     O1535   2.436       .  S
Zr1533     O1557   2.440       .  S
Zr1533     O1559   2.421       .  S
Zr1533     O1537   2.389       .  S
Zr1533     O1540   2.375       .  S
Zr1534     O1560   2.434       .  S
Zr1534     O1561   2.440       .  S
Zr1534     O1536   2.441       .  S
Zr1534     O1537   2.381       .  S
Zr1534     O1538   2.367       .  S
O1535      H1572   0.990       .  S
O1536      H1567   0.989       .  S
O1536      H1581   0.990       .  S
O1538      H1564   0.963       .  S
O1539     Zr1549   2.390       .  S
O1540     Zr1549   2.390       .  S
O1540      H1565   0.966       .  S
C1541      C3660   1.478       .  S
C1542      C3680   1.494       .  S
C1543      C3700   1.481       .  S
O1544      H1580   0.990       .  S
O1545      C1547   1.288       .  A
O1546      C1547   1.283       .  A
C1547      C3650   1.486       .  S
O1548     Zr1549   2.436       .  S
O1548      H1577   0.990       .  S
Zr1549     O1552   2.435       .  S
Zr1549     O1553   2.438       .  S
Zr1549     O1554   2.469       .  S
O1550      C1555   1.265       .  A
O1551      H1568   0.990       .  S
O1551      H1583   0.990       .  S
O1552      H1569   0.990       .  S
O1553      H1573   0.990       .  S
O1553      H1582   0.990       .  S
O1554      C1555   1.279       .  A
C1555      C3693   1.481       .  S
O1556      H1575   0.991       .  S
O1556      H1579   0.990       .  S
O1557      H1571   0.990       .  S
O1557      H1578   0.990       .  S
O1558      C1562   1.283       .  A
O1559      C1562   1.282       .  A
O1560      H1570   0.990       .  S
O1561      H1574   0.990       .  S
C1562      C3670   1.477       .  S
Zr1585     O1586   2.435       .  S
Zr1585     O1587   2.445       .  S
Zr1585     O1588   2.456       .  S
Zr1585     O1591   2.470       .  S
Zr1585     O1593   2.376       .  S
Zr1585     O1594   2.377       .  S
Zr1585     O1595   2.431       .  S
Zr1585     O1596   2.421       .  S
O1586      H1642   0.990       .  S
O1586      H1650   0.990       .  S
O1587      C1607   1.286       .  A
O1588      C1609   1.290       .  A
O1589     Zr1599   2.405       .  S
O1589      C1608   1.279       .  A
O1590     Zr1598   2.404       .  S
O1590      C1609   1.280       .  A
O1591      C1608   1.292       .  A
O1592     Zr1600   2.427       .  S
O1592      C1607   1.283       .  A
O1593     Zr1598   2.388       .  S
O1593     Zr1600   2.361       .  S
O1594     Zr1599   2.386       .  S
O1594     Zr1600   2.368       .  S
O1594      H1629   0.966       .  S
O1595     Zr1598   2.402       .  S
O1595     Zr1615   2.432       .  S
O1595      H1632   0.966       .  S
O1596     Zr1599   2.391       .  S
O1596     Zr1615   2.422       .  S
Zr1597     O1622   2.442       .  S
Zr1597     O1616   2.388       .  S
Zr1597     O1624   2.428       .  S
Zr1597     O1612   2.393       .  S
Zr1597     O1603   2.394       .  S
Zr1597     O1604   2.393       .  S
Zr1597     O1605   2.377       .  S
Zr1597     O1606   2.386       .  S
Zr1598     O1617   2.435       .  S
Zr1598     O1610   2.433       .  S
Zr1598     O1611   2.443       .  S
Zr1598     O1604   2.408       .  S
Zr1598     O1605   2.370       .  S
Zr1599     O1601   2.435   1_554  S
Zr1599     O1623   2.437       .  S
Zr1599     O1625   2.414       .  S
Zr1599     O1603   2.397       .  S
Zr1599     O1606   2.374       .  S
Zr1600     O1626   2.438       .  S
Zr1600     O1627   2.437       .  S
Zr1600     O1602   2.439       .  S
Zr1600     O1603   2.393       .  S
Zr1600     O1604   2.380       .  S
O1601      H1638   0.990       .  S
O1602      H1633   0.990       .  S
O1602      H1647   0.990       .  S
O1604      H1630   0.966       .  S
O1605     Zr1615   2.378       .  S
O1606     Zr1615   2.373       .  S
O1606      H1631   0.965       .  S
C1607      C3663   1.481       .  S
C1608      C3640   1.474       .  S
C1609      C3630   1.478       .  S
O1610      H1646   0.991       .  S
O1611      C1613   1.285       .  A
O1612      C1613   1.281       .  A
C1613      C3610   1.474       .  S
O1614     Zr1615   2.435       .  S
O1614      H1643   0.990       .  S
Zr1615     O1618   2.436       .  S
Zr1615     O1619   2.436   1_554  S
Zr1615     O1620   2.491   1_554  S
O1616      C1621   1.259       .  A
O1617      H1634   0.990       .  S
O1617      H1649   0.990       .  S
O1618      H1635   0.990       .  S
O1619      H1639   0.990       .  S
O1619      H1648   0.990       .  S
O1620      C1621   1.282   1_556  A
C1621      C3620   1.478   1_554  S
O1622      H1641   0.990       .  S
O1622      H1645   0.990       .  S
O1623      H1637   0.990       .  S
O1623      H1644   0.990       .  S
O1624      C1628   1.285       .  A
O1625      C1628   1.282       .  A
O1626      H1636   0.990       .  S
O1627      H1640   0.990       .  S
C1628      C3600   1.477       .  S
Zr1651     O1652   2.436       .  S
Zr1651     O1653   2.427       .  S
Zr1651     O1654   2.518       .  S
Zr1651     O1657   2.514       .  S
Zr1651     O1659   2.379       .  S
Zr1651     O1660   2.383       .  S
Zr1651     O1661   2.441       .  S
Zr1651     O1662   2.436       .  S
O1652      H1708   0.990       .  S
O1652      H1716   0.990       .  S
O1653      C1673   1.282       .  A
O1654      C1675   1.302       .  A
O1655     Zr1665   2.414       .  S
O1655      C1674   1.281       .  A
O1656     Zr1664   2.406       .  S
O1656      C1675   1.278       .  A
O1657      C1674   1.301       .  A
O1658     Zr1666   2.430       .  S
O1658      C1673   1.284       .  A
O1659     Zr1664   2.398       .  S
O1659     Zr1666   2.368       .  S
O1660     Zr1665   2.389       .  S
O1660     Zr1666   2.365       .  S
O1660      H1695   0.965       .  S
O1661     Zr1664   2.402       .  S
O1661     Zr1681   2.435       .  S
O1661      H1698   0.966       .  S
O1662     Zr1665   2.406       .  S
O1662     Zr1681   2.438       .  S
Zr1663     O1688   2.442       .  S
Zr1663     O1682   2.354       .  S
Zr1663     O1690   2.386       .  S
Zr1663     O1678   2.387       .  S
Zr1663     O1669   2.381       .  S
Zr1663     O1670   2.385       .  S
Zr1663     O1671   2.372       .  S
Zr1663     O1672   2.372       .  S
Zr1664     O1683   2.434   1_554  S
Zr1664     O1676   2.435       .  S
Zr1664     O1677   2.440       .  S
Zr1664     O1670   2.394       .  S
Zr1664     O1671   2.369       .  S
Zr1665     O1667   2.436       .  S
Zr1665     O1689   2.440       .  S
Zr1665     O1691   2.445       .  S
Zr1665     O1669   2.393       .  S
Zr1665     O1672   2.371       .  S
Zr1666     O1692   2.435       .  S
Zr1666     O1693   2.438       .  S
Zr1666     O1668   2.439       .  S
Zr1666     O1669   2.400       .  S
Zr1666     O1670   2.392       .  S
O1667      H1704   0.990       .  S
O1668      H1699   0.990       .  S
O1668      H1713   0.990       .  S
O1670      H1696   0.966       .  S
O1671     Zr1681   2.360       .  S
O1672     Zr1681   2.350       .  S
O1672      H1697   0.965       .  S
C1673      C3653   1.466       .  S
C1674      C3580   1.507       .  S
C1675      C3593   1.498       .  S
O1676      H1712   0.990       .  S
O1677      C1679   1.287       .  A
O1678      C1679   1.277       .  A
C1679      C3603   1.477   1_554  S
O1680     Zr1681   2.436       .  S
O1680      H1709   0.990       .  S
Zr1681     O1684   2.435   1_554  S
Zr1681     O1685   2.438       .  S
Zr1681     O1686   2.530       .  S
O1682      C1687   1.270       .  A
O1683      H1700   0.990       .  S
O1683      H1715   0.990       .  S
O1684      H1701   0.990       .  S
O1685      H1705   0.990       .  S
O1685      H1714   0.990       .  S
O1686      C1687   1.302       .  A
C1687      C3570   1.486   1_554  S
O1688      H1707   0.989       .  S
O1688      H1711   0.989       .  S
O1689      H1703   0.990       .  S
O1689      H1710   0.990       .  S
O1690      C1694   1.277       .  A
O1691      C1694   1.287       .  A
O1692      H1702   0.989       .  S
O1693      H1706   0.990       .  S
C1694      C3560   1.476       .  S
Zr1717     O1718   2.434       .  S
Zr1717     O1719   2.402       .  S
Zr1717     O1720   2.495       .  S
Zr1717     O1723   2.490       .  S
Zr1717     O1725   2.369       .  S
Zr1717     O1726   2.385       .  S
Zr1717     O1727   2.432       .  S
Zr1717     O1728   2.419       .  S
O1718      H1774   0.990       .  S
O1718      H1782   0.990       .  S
O1719      C1739   1.279       .  A
O1720      C1741   1.296       .  A
O1721     Zr1731   2.386       .  S
O1721      C1740   1.275       .  A
O1722     Zr1730   2.408       .  S
O1722      C1741   1.282       .  A
O1723      C1740   1.295       .  A
O1724     Zr1732   2.439       .  S
O1724      C1739   1.286       .  A
O1725     Zr1730   2.362       .  S
O1725     Zr1732   2.348       .  S
O1726     Zr1731   2.385       .  S
O1726     Zr1732   2.370       .  S
O1726      H1761   0.965       .  S
O1727     Zr1730   2.394       .  S
O1727     Zr1747   2.424       .  S
O1727      H1764   0.966       .  S
O1728     Zr1731   2.398       .  S
O1728     Zr1747   2.433       .  S
Zr1729     O1754   2.437       .  S
Zr1729     O1748   2.331       .  S
Zr1729     O1756   2.435       .  S
Zr1729     O1744   2.416       .  S
Zr1729     O1735   2.379       .  S
Zr1729     O1736   2.391       .  S
Zr1729     O1737   2.376       .  S
Zr1729     O1738   2.374       .  S
Zr1730     O1749   2.437       .  S
Zr1730     O1742   2.436       .  S
Zr1730     O1743   2.413       .  S
Zr1730     O1736   2.407       .  S
Zr1730     O1737   2.362       .  S
Zr1731     O1733   2.435       .  S
Zr1731     O1755   2.438       .  S
Zr1731     O1757   2.412       .  S
Zr1731     O1735   2.389       .  S
Zr1731     O1738   2.377       .  S
Zr1732     O1758   2.437       .  S
Zr1732     O1759   2.437       .  S
Zr1732     O1734   2.438       .  S
Zr1732     O1735   2.395       .  S
Zr1732     O1736   2.395       .  S
O1733      H1770   0.990       .  S
O1734      H1765   0.991       .  S
O1734      H1779   0.990       .  S
O1736      H1762   0.966       .  S
O1737     Zr1747   2.348       .  S
O1738     Zr1747   2.351       .  S
O1738      H1763   0.964       .  S
C1739      C3673   1.466       .  S
C1740      C3540   1.473       .  S
C1741      C3550   1.492       .  S
O1742      H1778   0.990       .  S
O1743      C1745   1.281       .  A
O1744      C1745   1.284       .  A
C1745      C3563   1.474       .  S
O1746     Zr1747   2.434       .  S
O1746      H1775   0.990       .  S
Zr1747     O1750   2.435       .  S
Zr1747     O1751   2.437       .  S
Zr1747     O1752   2.513       .  S
O1748      C1753   1.266       .  A
O1749      H1766   0.990       .  S
O1749      H1781   0.990       .  S
O1750      H1767   0.990       .  S
O1751      H1771   0.990       .  S
O1751      H1780   0.990       .  S
O1752      C1753   1.298       .  A
C1753      C3530   1.468       .  S
O1754      H1773   0.990       .  S
O1754      H1777   0.990       .  S
O1755      H1769   0.990       .  S
O1755      H1776   0.990       .  S
O1756      C1760   1.286       .  A
O1757      C1760   1.282       .  A
O1758      H1768   0.990       .  S
O1759      H1772   0.990       .  S
C1760      C3613   1.476       .  S
Zr1783     O1784   2.433       .  S
Zr1783     O1785   2.390       .  S
Zr1783     O1786   2.500       .  S
Zr1783     O1789   2.485       .  S
Zr1783     O1791   2.372       .  S
Zr1783     O1792   2.387       .  S
Zr1783     O1793   2.425       .  S
Zr1783     O1794   2.420       .  S
O1784      H1840   0.990       .  S
O1784      H1848   0.990       .  S
O1785      C1805   1.276       .  A
O1786      C1807   1.297       .  A
O1787     Zr1797   2.396       .  S
O1787      C1806   1.278       .  A
O1788     Zr1796   2.423       .  S
O1788      C1807   1.281       .  A
O1789      C1806   1.296       .  A
O1790     Zr1798   2.452       .  S
O1790      C1805   1.289       .  A
O1791     Zr1796   2.379       .  S
O1791     Zr1798   2.352       .  S
O1792     Zr1797   2.381       .  S
O1792     Zr1798   2.365       .  S
O1792      H1827   0.965       .  S
O1793     Zr1796   2.412       .  S
O1793     Zr1813   2.442       .  S
O1793      H1830   0.966       .  S
O1794     Zr1797   2.401       .  S
O1794     Zr1813   2.415       .  S
Zr1795     O1820   2.443       .  S
Zr1795     O1814   2.383       .  S
Zr1795     O1822   2.419       .  S
Zr1795     O1810   2.374       .  S
Zr1795     O1801   2.390       .  S
Zr1795     O1802   2.392       .  S
Zr1795     O1803   2.378       .  S
Zr1795     O1804   2.387       .  S
Zr1796     O1815   2.435       .  S
Zr1796     O1808   2.435       .  S
Zr1796     O1809   2.454       .  S
Zr1796     O1802   2.407       .  S
Zr1796     O1803   2.372       .  S
Zr1797     O1799   2.435       .  S
Zr1797     O1821   2.441       .  S
Zr1797     O1823   2.430       .  S
Zr1797     O1801   2.390       .  S
Zr1797     O1804   2.357       .  S
Zr1798     O1824   2.435       .  S
Zr1798     O1825   2.434       .  S
Zr1798     O1800   2.436       .  S
Zr1798     O1801   2.386       .  S
Zr1798     O1802   2.400       .  S
O1799      H1836   0.990       .  S
O1800      H1831   0.990       .  S
O1800      H1845   0.990       .  S
O1802      H1828   0.966       .  S
O1803     Zr1813   2.393       .  S
O1804     Zr1813   2.390       .  S
O1804      H1829   0.965       .  S
C1805      C3470   1.458       .  S
C1806      C3510   1.481       .  S
C1807      C3520   1.491       .  S
O1808      H1844   0.991       .  S
O1809      C1811   1.288       .  A
O1810      C1811   1.276       .  A
C1811      C3480   1.477       .  S
O1812     Zr1813   2.436       .  S
O1812      H1841   0.990       .  S
Zr1813     O1816   2.437       .  S
Zr1813     O1817   2.439       .  S
Zr1813     O1818   2.475       .  S
O1814      C1819   1.257       .  A
O1815      H1832   0.990       .  S
O1815      H1847   0.990       .  S
O1816      H1833   0.990       .  S
O1817      H1837   0.990       .  S
O1817      H1846   0.990       .  S
O1818      C1819   1.274       .  A
C1819      C3500   1.480       .  S
O1820      H1839   0.991       .  S
O1820      H1843   0.990       .  S
O1821      H1835   0.990       .  S
O1821      H1842   0.990       .  S
O1822      C1826   1.283       .  A
O1823      C1826   1.286       .  A
O1824      H1834   0.990       .  S
O1825      H1838   0.990       .  S
C1826      C3490   1.481       .  S
Zr1849     O1850   2.435       .  S
Zr1849     O1851   2.424       .  S
Zr1849     O1852   2.478       .  S
Zr1849     O1855   2.482       .  S
Zr1849     O1857   2.382       .  S
Zr1849     O1858   2.388       .  S
Zr1849     O1859   2.427       .  S
Zr1849     O1860   2.424       .  S
O1850      H1906   0.990       .  S
O1850      H1914   0.990       .  S
O1851      C1871   1.283       .  A
O1852      C1873   1.293       .  A
O1853     Zr1863   2.437       .  S
O1853      C1872   1.284       .  A
O1854     Zr1862   2.399       .  S
O1854      C1873   1.279       .  A
O1855      C1872   1.296       .  A
O1856     Zr1864   2.435       .  S
O1856      C1871   1.286       .  A
O1857     Zr1862   2.381       .  S
O1857     Zr1864   2.365       .  S
O1858     Zr1863   2.400       .  S
O1858     Zr1864   2.352       .  S
O1858      H1893   0.963       .  S
O1859     Zr1862   2.399       .  S
O1859     Zr1879   2.418       .  S
O1859      H1896   0.966       .  S
O1860     Zr1863   2.401       .  S
O1860     Zr1879   2.439       .  S
Zr1861     O1886   2.437       .  S
Zr1861     O1880   2.381       .  S
Zr1861     O1888   2.397       .  S
Zr1861     O1876   2.425       .  S
Zr1861     O1867   2.390       .  S
Zr1861     O1868   2.396       .  S
Zr1861     O1869   2.372       .  S
Zr1861     O1870   2.385       .  S
Zr1862     O1881   2.436       .  S
Zr1862     O1874   2.438       .  S
Zr1862     O1875   2.426       .  S
Zr1862     O1868   2.389       .  S
Zr1862     O1869   2.367       .  S
Zr1863     O1865   2.436       .  S
Zr1863     O1887   2.440       .  S
Zr1863     O1889   2.442       .  S
Zr1863     O1867   2.399       .  S
Zr1863     O1870   2.380       .  S
Zr1864     O1890   2.436       .  S
Zr1864     O1891   2.436       .  S
Zr1864     O1866   2.439       .  S
Zr1864     O1867   2.389       .  S
Zr1864     O1868   2.395       .  S
O1865      H1902   0.990       .  S
O1866      H1897   0.990       .  S
O1866      H1911   0.990       .  S
O1868      H1894   0.966       .  S
O1869     Zr1879   2.357       .  S
O1870     Zr1879   2.375       .  S
O1870      H1895   0.965       .  S
C1871      C3430   1.475       .  S
C1872      C3460   1.498       .  S
C1873      C3453   1.479       .  S
O1874      H1910   0.990       .  S
O1875      C1877   1.284       .  A
O1876      C1877   1.283       .  A
C1877      C3493   1.478       .  S
O1878     Zr1879   2.436       .  S
O1878      H1907   0.990       .  S
Zr1879     O1882   2.436       .  S
Zr1879     O1883   2.441       .  S
Zr1879     O1884   2.496       .  S
O1880      C1885   1.268       .  A
O1881      H1898   0.990       .  S
O1881      H1913   0.990       .  S
O1882      H1899   0.989       .  S
O1883      H1903   0.990       .  S
O1883      H1912   0.990       .  S
O1884      C1885   1.292       .  A
C1885      C3440   1.476       .  S
O1886      H1905   0.990       .  S
O1886      H1909   0.990       .  S
O1887      H1901   0.990       .  S
O1887      H1908   0.991       .  S
O1888      C1892   1.272       .  A
O1889      C1892   1.286       .  A
O1890      H1900   0.991       .  S
O1891      H1904   0.990       .  S
C1892      C3420   1.473       .  S
Zr1915     O1916   2.433       .  S
Zr1915     O1917   2.432       .  S
Zr1915     O1918   2.512       .  S
Zr1915     O1921   2.478       .  S
Zr1915     O1923   2.372       .  S
Zr1915     O1924   2.387       .  S
Zr1915     O1925   2.425       .  S
Zr1915     O1926   2.438       .  S
O1916      H1972   0.990       .  S
O1916      H1980   0.990       .  S
O1917      C1937   1.284       .  A
O1918      C1939   1.300       .  A
O1919     Zr1929   2.415       .  S
O1919      C1938   1.281       .  A
O1920     Zr1928   2.384       .  S
O1920      C1939   1.275       .  A
O1921      C1938   1.294       .  A
O1922     Zr1930   2.418       .  S
O1922      C1937   1.283       .  A
O1923     Zr1928   2.375       .  S
O1923     Zr1930   2.370       .  S
O1924     Zr1929   2.366       .  S
O1924     Zr1930   2.364       .  S
O1924      H1959   0.963       .  S
O1925     Zr1928   2.390       .  S
O1925     Zr1945   2.436       .  S
O1925      H1962   0.966       .  S
O1926     Zr1929   2.395       .  S
O1926     Zr1945   2.434       .  S
Zr1927     O1952   2.438       .  S
Zr1927     O1946   2.351       .  S
Zr1927     O1954   2.436       .  S
Zr1927     O1942   2.445       .  S
Zr1927     O1933   2.386       .  S
Zr1927     O1934   2.394       .  S
Zr1927     O1935   2.365       .  S
Zr1927     O1936   2.385       .  S
Zr1928     O1947   2.440       .  S
Zr1928     O1940   2.436       .  S
Zr1928     O1941   2.382       .  S
Zr1928     O1934   2.393       .  S
Zr1928     O1935   2.364       .  S
Zr1929     O1931   2.436       .  S
Zr1929     O1953   2.438       .  S
Zr1929     O1955   2.404       .  S
Zr1929     O1933   2.403       .  S
Zr1929     O1936   2.371       .  S
Zr1930     O1956   2.437       .  S
Zr1930     O1957   2.434       .  S
Zr1930     O1932   2.439       .  S
Zr1930     O1933   2.396       .  S
Zr1930     O1934   2.391       .  S
O1931      H1968   0.990       .  S
O1932      H1963   0.990       .  S
O1932      H1977   0.990       .  S
O1934      H1960   0.966       .  S
O1935     Zr1945   2.340       .  S
O1936     Zr1945   2.353       .  S
O1936      H1961   0.965       .  S
C1937      C3380   1.467       .  S
C1938      C3410   1.489       .  S
C1939      C3400   1.489       .  S
O1940      H1976   0.990       .  S
O1941      C1943   1.277       .  A
O1942      C1943   1.288       .  A
C1943      C3423   1.474       .  S
O1944     Zr1945   2.434       .  S
O1944      H1973   0.990       .  S
Zr1945     O1948   2.435       .  S
Zr1945     O1949   2.436       .  S
Zr1945     O1950   2.524       .  S
O1946      C1951   1.271       .  A
O1947      H1964   0.990       .  S
O1947      H1979   0.990       .  S
O1948      H1965   0.990       .  S
O1949      H1969   0.990       .  S
O1949      H1978   0.990       .  S
O1950      C1951   1.301       .  A
C1951      C3390   1.479       .  S
O1952      H1971   0.990       .  S
O1952      H1975   0.990       .  S
O1953      H1967   0.990       .  S
O1953      H1974   0.990       .  S
O1954      C1958   1.288       .  A
O1955      C1958   1.280       .  A
O1956      H1966   0.990       .  S
O1957      H1970   0.990       .  S
C1958      C3483   1.472       .  S
Zr1981     O1982   2.435       .  S
Zr1981     O1983   2.442       .  S
Zr1981     O1984   2.446       .  S
Zr1981     O1987   2.448       .  S
Zr1981     O1989   2.378       .  S
Zr1981     O1990   2.385       .  S
Zr1981     O1991   2.423       .  S
Zr1981     O1992   2.422       .  S
O1982      H2038   0.990       .  S
O1982      H2046   0.990       .  S
O1983      C2003   1.284       .  A
O1984      C2005   1.288       .  A
O1985     Zr1995   2.412       .  S
O1985      C2004   1.279       .  A
O1986     Zr1994   2.426       .  S
O1986      C2005   1.284       .  A
O1987      C2004   1.286       .  A
O1988     Zr1996   2.407       .  S
O1988      C2003   1.279       .  A
O1989     Zr1994   2.385       .  S
O1989     Zr1996   2.371       .  S
O1990     Zr1995   2.392       .  S
O1990     Zr1996   2.363       .  S
O1990      H2025   0.965       .  S
O1991     Zr1994   2.392       .  S
O1991     Zr2011   2.419       .  S
O1991      H2028   0.966       .  S
O1992     Zr1995   2.391       .  S
O1992     Zr2011   2.426       .  S
Zr1993     O2018   2.441       .  S
Zr1993     O2012   2.401       .  S
Zr1993     O2020   2.435       .  S
Zr1993     O2008   2.432       .  S
Zr1993     O1999   2.383       .  S
Zr1993     O2000   2.417       .  S
Zr1993     O2001   2.386       .  S
Zr1993     O2002   2.399       .  S
Zr1994     O2013   2.438       .  S
Zr1994     O2006   2.436       .  S
Zr1994     O2007   2.417       .  S
Zr1994     O2000   2.402       .  S
Zr1994     O2001   2.376       .  S
Zr1995     O1997   2.437       .  S
Zr1995     O2019   2.442       .  S
Zr1995     O2021   2.432       .  S
Zr1995     O1999   2.385       .  S
Zr1995     O2002   2.381       .  S
Zr1996     O2022   2.440       .  S
Zr1996     O2023   2.437       .  S
Zr1996     O1998   2.437       .  S
Zr1996     O1999   2.372       .  S
Zr1996     O2000   2.379       .  S
O1997      H2034   0.990       .  S
O1998      H2029   0.990       .  S
O1998      H2043   0.990       .  S
O2000      H2026   0.965       .  S
O2001     Zr2011   2.367       .  S
O2002     Zr2011   2.387       .  S
O2002      H2027   0.966       .  S
C2003      C3433   1.464       .  S
C2004      C3350   1.472       .  S
C2005      C3360   1.490       .  S
O2006      H2042   0.990       .  S
O2007      C2009   1.281       .  A
O2008      C2009   1.285       .  A
C2009      C3383   1.479       .  S
O2010     Zr2011   2.437       .  S
O2010      H2039   0.990       .  S
Zr2011     O2014   2.436       .  S
Zr2011     O2015   2.438       .  S
Zr2011     O2016   2.478       .  S
O2012      C2017   1.266       .  A
O2013      H2030   0.990       .  S
O2013      H2045   0.989       .  S
O2014      H2031   0.991       .  S
O2015      H2035   0.990       .  S
O2015      H2044   0.990       .  S
O2016      C2017   1.286       .  A
C2017      C3370   1.475       .  S
O2018      H2037   0.990       .  S
O2018      H2041   0.990       .  S
O2019      H2033   0.989       .  S
O2019      H2040   0.990       .  S
O2020      C2024   1.284       .  A
O2021      C2024   1.283       .  A
O2022      H2032   0.990       .  S
O2023      H2036   0.990       .  S
C2024      C3473   1.461       .  S
Zr2047     O2048   2.445       .  S
Zr2047     O2049   2.472       .  S
Zr2047     O2050   2.425       .  S
Zr2047     O2053   2.429       .  S
Zr2047     O2055   2.373       .  S
Zr2047     O2056   2.383       .  S
Zr2047     O2057   2.421       .  S
Zr2047     O2058   2.405       .  S
O2048      H2104   0.990       .  S
O2048      H2112   0.991       .  S
O2049      C2069   1.290       .  A
O2050      C2071   1.282       .  A
O2051     Zr2061   2.433       .  S
O2051      C2070   1.285       .  A
O2052     Zr2060   2.477       .  S
O2052      C2071   1.291       .  A
O2053      C2070   1.283       .  A
O2054     Zr2062   2.407       .  S
O2054      C2069   1.278       .  A
O2055     Zr2060   2.402       .  S
O2055     Zr2062   2.392       .  S
O2056     Zr2061   2.399       .  S
O2056     Zr2062   2.380       .  S
O2056      H2091   0.966       .  S
O2057     Zr2060   2.400       .  S
O2057     Zr2077   2.396       .  S
O2057      H2094   0.964       .  S
O2058     Zr2061   2.390       .  S
O2058     Zr2077   2.400       .  S
Zr2059     O2084   2.441       .  S
Zr2059     O2078   2.438       .  S
Zr2059     O2086   2.422       .  S
Zr2059     O2074   2.446       .  S
Zr2059     O2065   2.407       .  S
Zr2059     O2066   2.404       .  S
Zr2059     O2067   2.381       .  S
Zr2059     O2068   2.377       .  S
Zr2060     O2079   2.435       .  S
Zr2060     O2072   2.436       .  S
Zr2060     O2073   2.453       .  S
Zr2060     O2066   2.408       .  S
Zr2060     O2067   2.412       .  S
Zr2061     O2063   2.436       .  S
Zr2061     O2085   2.436       .  S
Zr2061     O2087   2.436       .  S
Zr2061     O2065   2.390       .  S
Zr2061     O2068   2.391       .  S
Zr2062     O2088   2.439       .  S
Zr2062     O2089   2.436       .  S
Zr2062     O2064   2.436       .  S
Zr2062     O2065   2.394       .  S
Zr2062     O2066   2.380       .  S
O2063      H2100   0.990       .  S
O2064      H2095   0.990       .  S
O2064      H2109   0.990       .  S
O2066      H2092   0.964       .  S
O2067     Zr2077   2.386       .  S
O2068     Zr2077   2.355       .  S
O2068      H2093   0.966       .  S
C2069      C3543   1.498       .  S
C2070      C3633   1.485       .  S
C2071      C3683   1.486       .  S
O2072      H2108   0.990       .  S
O2073      C2075   1.289       .  A
O2074      C2075   1.288       .  A
C2075      C3513   1.491       .  S
O2076     Zr2077   2.435       .  S
O2076      H2105   0.990       .  S
Zr2077     O2080   2.435       .  S
Zr2077     O2081   2.438       .  S
Zr2077     O2082   2.445       .  S
O2078      C2083   1.286       .  A
O2079      H2096   0.990       .  S
O2079      H2111   0.990       .  S
O2080      H2097   0.990       .  S
O2081      H2101   0.990       .  S
O2081      H2110   0.990       .  S
O2082      C2083   1.285       .  A
C2083      C3450   1.500       .  S
O2084      H2103   0.990       .  S
O2084      H2107   0.990       .  S
O2085      H2099   0.990       .  S
O2085      H2106   0.990       .  S
O2086      C2090   1.284       .  A
O2087      C2090   1.285       .  A
O2088      H2098   0.990       .  S
O2089      H2102   0.990       .  S
C2090      C3353   1.469       .  S
Zr2113     O2114   2.441       .  S
Zr2113     O2115   2.498       .  S
Zr2113     O2116   2.504       .  S
Zr2113     O2119   2.461   1_554  S
Zr2113     O2121   2.380       .  S
Zr2113     O2122   2.398       .  S
Zr2113     O2123   2.415   1_554  S
Zr2113     O2124   2.415   1_554  S
O2114      H2170   0.990       .  S
O2114      H2178   0.991       .  S
O2115      C2135   1.296       .  A
O2116      C2137   1.298   1_554  A
O2117     Zr2127   2.472       .  S
O2117      C2136   1.292       .  A
O2118     Zr2126   2.407       .  S
O2118      C2137   1.280       .  A
O2119      C2136   1.291       .  A
O2120     Zr2128   2.380       .  S
O2120      C2135   1.272       .  A
O2121     Zr2126   2.398   1_554  S
O2121     Zr2128   2.392       .  S
O2122     Zr2127   2.405   1_554  S
O2122     Zr2128   2.383       .  S
O2122      H2157   0.966       .  S
O2123     Zr2126   2.393       .  S
O2123     Zr2143   2.382       .  S
O2123      H2160   0.963       .  S
O2124     Zr2127   2.389       .  S
O2124     Zr2143   2.390       .  S
Zr2125     O2150   2.444       .  S
Zr2125     O2144   2.457       .  S
Zr2125     O2152   2.467       .  S
Zr2125     O2140   2.466       .  S
Zr2125     O2131   2.408       .  S
Zr2125     O2132   2.409       .  S
Zr2125     O2133   2.376       .  S
Zr2125     O2134   2.400       .  S
Zr2126     O2145   2.437       .  S
Zr2126     O2138   2.434   1_556  S
Zr2126     O2139   2.410       .  S
Zr2126     O2132   2.400       .  S
Zr2126     O2133   2.393       .  S
Zr2127     O2129   2.437       .  S
Zr2127     O2151   2.436   1_556  S
Zr2127     O2153   2.463       .  S
Zr2127     O2131   2.399       .  S
Zr2127     O2134   2.411       .  S
Zr2128     O2154   2.435       .  S
Zr2128     O2155   2.436       .  S
Zr2128     O2130   2.438       .  S
Zr2128     O2131   2.384   1_554  S
Zr2128     O2132   2.373   1_554  S
O2129      H2166   0.990       .  S
O2130      H2161   0.990       .  S
O2130      H2175   0.990       .  S
O2132      H2158   0.964       .  S
O2133     Zr2143   2.379       .  S
O2134     Zr2143   2.383       .  S
O2134      H2159   0.966       .  S
C2135      C3533   1.478       .  S
C2136      C3573   1.498       .  S
C2137      C3623   1.497       .  S
O2138      H2174   0.990       .  S
O2139      C2141   1.279       .  A
O2140      C2141   1.290       .  A
C2141      C4443   1.466       .  S
O2142     Zr2143   2.436       .  S
O2142      H2171   0.990       .  S
Zr2143     O2146   2.436       .  S
Zr2143     O2147   2.437       .  S
Zr2143     O2148   2.410       .  S
O2144      C2149   1.287       .  A
O2145      H2162   0.990       .  S
O2145      H2177   0.990       .  S
O2146      H2163   0.990       .  S
O2147      H2167   0.990       .  S
O2147      H2176   0.990       .  S
O2148      C2149   1.279       .  A
C2149      C4603   1.480       .  S
O2150      H2169   0.990       .  S
O2150      H2173   0.990       .  S
O2151      H2165   0.990       .  S
O2151      H2172   0.990   1_554  S
O2152      C2156   1.290       .  A
O2153      C2156   1.291       .  A
O2154      H2164   0.990       .  S
O2155      H2168   0.990       .  S
C2156      C4533   1.506       .  S
Zr2179     O2180   2.435       .  S
Zr2179     O2181   2.422       .  S
Zr2179     O2182   2.475       .  S
Zr2179     O2185   2.474       .  S
Zr2179     O2187   2.378       .  S
Zr2179     O2188   2.388       .  S
Zr2179     O2189   2.427       .  S
Zr2179     O2190   2.419       .  S
O2180      H2236   0.990       .  S
O2180      H2244   0.990       .  S
O2181      C2201   1.282       .  A
O2182      C2203   1.293       .  A
O2183     Zr2193   2.410       .  S
O2183      C2202   1.281       .  A
O2184     Zr2192   2.405       .  S
O2184      C2203   1.278       .  A
O2185      C2202   1.293       .  A
O2186     Zr2194   2.430       .  S
O2186      C2201   1.284       .  A
O2187     Zr2192   2.397       .  S
O2187     Zr2194   2.359       .  S
O2188     Zr2193   2.390       .  S
O2188     Zr2194   2.357       .  S
O2188      H2223   0.965       .  S
O2189     Zr2192   2.407       .  S
O2189     Zr2209   2.421       .  S
O2189      H2226   0.966       .  S
O2190     Zr2193   2.397       .  S
O2190     Zr2209   2.411       .  S
Zr2191     O2216   2.434       .  S
Zr2191     O2210   2.386       .  S
Zr2191     O2218   2.384       .  S
Zr2191     O2206   2.420       .  S
Zr2191     O2197   2.398       .  S
Zr2191     O2198   2.386       .  S
Zr2191     O2199   2.374       .  S
Zr2191     O2200   2.378       .  S
Zr2192     O2211   2.434       .  S
Zr2192     O2204   2.435       .  S
Zr2192     O2205   2.450       .  S
Zr2192     O2198   2.402       .  S
Zr2192     O2199   2.373       .  S
Zr2193     O2195   2.436       .  S
Zr2193     O2217   2.438       .  S
Zr2193     O2219   2.445       .  S
Zr2193     O2197   2.387       .  S
Zr2193     O2200   2.362       .  S
Zr2194     O2220   2.435       .  S
Zr2194     O2221   2.436       .  S
Zr2194     O2196   2.438       .  S
Zr2194     O2197   2.399       .  S
Zr2194     O2198   2.369       .  S
O2195      H2232   0.990       .  S
O2196      H2227   0.990       .  S
O2196      H2241   0.990       .  S
O2198      H2224   0.964       .  S
O2199     Zr2209   2.382       .  S
O2200     Zr2209   2.364       .  S
O2200      H2225   0.965       .  S
C2201      C3290   1.470       .  S
C2202      C3333   1.477       .  S
C2203      C3340   1.491       .  S
O2204      H2240   0.991       .  S
O2205      C2207   1.285       .  A
O2206      C2207   1.276       .  A
C2207      C3313   1.483       .  S
O2208     Zr2209   2.436       .  S
O2208      H2237   0.990       .  S
Zr2209     O2212   2.435       .  S
Zr2209     O2213   2.437       .  S
Zr2209     O2214   2.469       .  S
O2210      C2215   1.277       .  A
O2211      H2228   0.990       .  S
O2211      H2243   0.990       .  S
O2212      H2229   0.990       .  S
O2213      H2233   0.990       .  S
O2213      H2242   0.990       .  S
O2214      C2215   1.289       .  A
C2215      C3323   1.468       .  S
O2216      H2235   0.989       .  S
O2216      H2239   0.989       .  S
O2217      H2231   0.990       .  S
O2217      H2238   0.990       .  S
O2218      C2222   1.276       .  A
O2219      C2222   1.289       .  A
O2220      H2230   0.990       .  S
O2221      H2234   0.990       .  S
C2222      C3300   1.464       .  S
Zr2245     O2246   2.434       .  S
Zr2245     O2247   2.435       .  S
Zr2245     O2248   2.455       .  S
Zr2245     O2251   2.448       .  S
Zr2245     O2253   2.375       .  S
Zr2245     O2254   2.382       .  S
Zr2245     O2255   2.424       .  S
Zr2245     O2256   2.413       .  S
O2246      H2302   0.990       .  S
O2246      H2310   0.990       .  S
O2247      C2267   1.283       .  A
O2248      C2269   1.287       .  A
O2249     Zr2259   2.415       .  S
O2249      C2268   1.283       .  A
O2250     Zr2258   2.420       .  S
O2250      C2269   1.279       .  A
O2251      C2268   1.289       .  A
O2252     Zr2260   2.425       .  S
O2252      C2267   1.283       .  A
O2253     Zr2258   2.393       .  S
O2253     Zr2260   2.365       .  S
O2254     Zr2259   2.377       .  S
O2254     Zr2260   2.369       .  S
O2254      H2289   0.966       .  S
O2255     Zr2258   2.401       .  S
O2255     Zr2275   2.427       .  S
O2255      H2292   0.966       .  S
O2256     Zr2259   2.393       .  S
O2256     Zr2275   2.411       .  S
Zr2257     O2282   2.441       .  S
Zr2257     O2276   2.397       .  S
Zr2257     O2284   2.416       .  S
Zr2257     O2272   2.396       .  S
Zr2257     O2263   2.400       .  S
Zr2257     O2264   2.394       .  S
Zr2257     O2265   2.377       .  S
Zr2257     O2266   2.384       .  S
Zr2258     O2277   2.433   1_545  S
Zr2258     O2270   2.435       .  S
Zr2258     O2271   2.447       .  S
Zr2258     O2264   2.401       .  S
Zr2258     O2265   2.375       .  S
Zr2259     O2261   2.435   1_455  S
Zr2259     O2283   2.439       .  S
Zr2259     O2285   2.420       .  S
Zr2259     O2263   2.392       .  S
Zr2259     O2266   2.367       .  S
Zr2260     O2286   2.436       .  S
Zr2260     O2287   2.437       .  S
Zr2260     O2262   2.438       .  S
Zr2260     O2263   2.393       .  S
Zr2260     O2264   2.379       .  S
O2261      H2298   0.990       .  S
O2262      H2293   0.990       .  S
O2262      H2307   0.990       .  S
O2264      H2290   0.964       .  S
O2265     Zr2275   2.381       .  S
O2266     Zr2275   2.368       .  S
O2266      H2291   0.964       .  S
C2267      C3293   1.465       .  S
C2268      C3280   1.484   1_455  S
C2269      C3260   1.477       .  S
O2270      H2306   0.991       .  S
O2271      C2273   1.287       .  A
O2272      C2273   1.280       .  A
C2273      C3250   1.466   1_545  S
O2274     Zr2275   2.436   1_655  S
O2274      H2303   0.990       .  S
Zr2275     O2278   2.434   1_545  S
Zr2275     O2279   2.436   1_455  S
Zr2275     O2280   2.478   1_455  S
O2276      C2281   1.268       .  A
O2277      H2294   0.990       .  S
O2277      H2309   0.990       .  S
O2278      H2295   0.990       .  S
O2279      H2299   0.990       .  S
O2279      H2308   0.990       .  S
O2280      C2281   1.286   1_655  A
C2281      C3273   1.474   1_445  S
O2282      H2301   0.990       .  S
O2282      H2305   0.990       .  S
O2283      H2297   0.990       .  S
O2283      H2304   0.990       .  S
O2284      C2288   1.281       .  A
O2285      C2288   1.285       .  A
O2286      H2296   0.990       .  S
O2287      H2300   0.990       .  S
C2288      C3243   1.470       .  S
Zr2311     O2312   2.434       .  S
Zr2311     O2313   2.395       .  S
Zr2311     O2314   2.526       .  S
Zr2311     O2317   2.527       .  S
Zr2311     O2319   2.375       .  S
Zr2311     O2320   2.400       .  S
Zr2311     O2321   2.439       .  S
Zr2311     O2322   2.429       .  S
O2312      H2368   0.990       .  S
O2312      H2376   0.990       .  S
O2313      C2333   1.277       .  A
O2314      C2335   1.304       .  A
O2315     Zr2325   2.417       .  S
O2315      C2334   1.275       .  A
O2316     Zr2324   2.403       .  S
O2316      C2335   1.281       .  A
O2317      C2334   1.301       .  A
O2318     Zr2326   2.468       .  S
O2318      C2333   1.291       .  A
O2319     Zr2324   2.377       .  S
O2319     Zr2326   2.352       .  S
O2320     Zr2325   2.395       .  S
O2320     Zr2326   2.344       .  S
O2320      H2355   0.964       .  S
O2321     Zr2324   2.403       .  S
O2321     Zr2341   2.425       .  S
O2321      H2358   0.966       .  S
O2322     Zr2325   2.397       .  S
O2322     Zr2341   2.435       .  S
Zr2323     O2348   2.437       .  S
Zr2323     O2342   2.405       .  S
Zr2323     O2350   2.416       .  S
Zr2323     O2338   2.404       .  S
Zr2323     O2329   2.387       .  S
Zr2323     O2330   2.404       .  S
Zr2323     O2331   2.374       .  S
Zr2323     O2332   2.373       .  S
Zr2324     O2343   2.437   1_455  S
Zr2324     O2336   2.436       .  S
Zr2324     O2337   2.429       .  S
Zr2324     O2330   2.392       .  S
Zr2324     O2331   2.362       .  S
Zr2325     O2327   2.435   1_554  S
Zr2325     O2349   2.437   1_554  S
Zr2325     O2351   2.425   1_554  S
Zr2325     O2329   2.397       .  S
Zr2325     O2332   2.377       .  S
Zr2326     O2352   2.434       .  S
Zr2326     O2353   2.436       .  S
Zr2326     O2328   2.438       .  S
Zr2326     O2329   2.412       .  S
Zr2326     O2330   2.396       .  S
O2327      H2364   0.990       .  S
O2328      H2359   0.990       .  S
O2328      H2373   0.991       .  S
O2330      H2356   0.966       .  S
O2331     Zr2341   2.344       .  S
O2332     Zr2341   2.377       .  S
O2332      H2357   0.966   1_554  S
C2333      C3310   1.468       .  S
C2334      C3210   1.511       .  S
C2335      C3233   1.505       .  S
O2336      H2372   0.990       .  S
O2337      C2339   1.286       .  A
O2338      C2339   1.280       .  A
C2339      C3240   1.471       .  S
O2340     Zr2341   2.435   1_655  S
O2340      H2369   0.990   1_654  S
Zr2341     O2344   2.435   1_455  S
Zr2341     O2345   2.441   1_554  S
Zr2341     O2346   2.497       .  S
O2342      C2347   1.278       .  A
O2343      H2360   0.989       .  S
O2343      H2375   0.990       .  S
O2344      H2361   0.990       .  S
O2345      H2365   0.990       .  S
O2345      H2374   0.989       .  S
O2346      C2347   1.294       .  A
C2347      C3220   1.485   1_455  S
O2348      H2367   0.990       .  S
O2348      H2371   0.990       .  S
O2349      H2363   0.990       .  S
O2349      H2370   0.990   1_556  S
O2350      C2354   1.284   1_554  A
O2351      C2354   1.283       .  A
O2352      H2362   0.990       .  S
O2353      H2366   0.990       .  S
C2354      C3200   1.476       .  S
Zr2377     O2378   2.434   1_545  S
Zr2377     O2379   2.396       .  S
Zr2377     O2380   2.483       .  S
Zr2377     O2383   2.481   1_545  S
Zr2377     O2385   2.381       .  S
Zr2377     O2386   2.398       .  S
Zr2377     O2387   2.422       .  S
Zr2377     O2388   2.423       .  S
O2378      H2434   0.990       .  S
O2378      H2442   0.990       .  S
O2379      C2399   1.276       .  A
O2380      C2401   1.295       .  A
O2381     Zr2391   2.424   1_565  S
O2381      C2400   1.277       .  A
O2382     Zr2390   2.422       .  S
O2382      C2401   1.284       .  A
O2383      C2400   1.291       .  A
O2384     Zr2392   2.442       .  S
O2384      C2399   1.287       .  A
O2385     Zr2390   2.374       .  S
O2385     Zr2392   2.362       .  S
O2386     Zr2391   2.387       .  S
O2386     Zr2392   2.350       .  S
O2386      H2421   0.963       .  S
O2387     Zr2390   2.398       .  S
O2387     Zr2407   2.412       .  S
O2387      H2424   0.966       .  S
O2388     Zr2391   2.404       .  S
O2388     Zr2407   2.433       .  S
Zr2389     O2414   2.440       .  S
Zr2389     O2408   2.393       .  S
Zr2389     O2416   2.411       .  S
Zr2389     O2404   2.417       .  S
Zr2389     O2395   2.388       .  S
Zr2389     O2396   2.397       .  S
Zr2389     O2397   2.380       .  S
Zr2389     O2398   2.376       .  S
Zr2390     O2409   2.434       .  S
Zr2390     O2402   2.436       .  S
Zr2390     O2403   2.421       .  S
Zr2390     O2396   2.397       .  S
Zr2390     O2397   2.372       .  S
Zr2391     O2393   2.436   1_554  S
Zr2391     O2415   2.437       .  S
Zr2391     O2417   2.431   1_554  S
Zr2391     O2395   2.397       .  S
Zr2391     O2398   2.381       .  S
Zr2392     O2418   2.438       .  S
Zr2392     O2419   2.437       .  S
Zr2392     O2394   2.440       .  S
Zr2392     O2395   2.409       .  S
Zr2392     O2396   2.377       .  S
O2393      H2430   0.990       .  S
O2394      H2425   0.990       .  S
O2394      H2439   0.990       .  S
O2396      H2422   0.966       .  S
O2397     Zr2407   2.349       .  S
O2398     Zr2407   2.375       .  S
O2398      H2423   0.965       .  S
C2399      C3253   1.456       .  S
C2400      C3193   1.495       .  S
C2401      C3180   1.498       .  S
O2402      H2438   0.990       .  S
O2403      C2405   1.285       .  A
O2404      C2405   1.283       .  A
C2405      C3303   1.470       .  S
O2406     Zr2407   2.435       .  S
O2406      H2435   0.990       .  S
Zr2407     O2410   2.437       .  S
Zr2407     O2411   2.440   1_554  S
Zr2407     O2412   2.491       .  S
O2408      C2413   1.272       .  A
O2409      H2426   0.990       .  S
O2409      H2441   0.990       .  S
O2410      H2427   0.990       .  S
O2411      H2431   0.990       .  S
O2411      H2440   0.990       .  S
O2412      C2413   1.291       .  A
C2413      C3170   1.477       .  S
O2414      H2433   0.990       .  S
O2414      H2437   0.990       .  S
O2415      H2429   0.990       .  S
O2415      H2436   0.990       .  S
O2416      C2420   1.283   1_554  A
O2417      C2420   1.284       .  A
O2418      H2428   0.990       .  S
O2419      H2432   0.990       .  S
C2420      C3203   1.474       .  S
Zr2443     O2444   2.444       .  S
Zr2443     O2445   2.479       .  S
Zr2443     O2446   2.430       .  S
Zr2443     O2449   2.447       .  S
Zr2443     O2451   2.384       .  S
Zr2443     O2452   2.378   1_556  S
Zr2443     O2453   2.422       .  S
Zr2443     O2454   2.399       .  S
O2444      H2500   0.990       .  S
O2444      H2508   0.991       .  S
O2445      C2465   1.292       .  A
O2446      C2467   1.283       .  A
O2447     Zr2457   2.460       .  S
O2447      C2466   1.290   1_554  A
O2448     Zr2456   2.489       .  S
O2448      C2467   1.295       .  A
O2449      C2466   1.287       .  A
O2450     Zr2458   2.401   1_556  S
O2450      C2465   1.277       .  A
O2451     Zr2456   2.413       .  S
O2451     Zr2458   2.388   1_556  S
O2452     Zr2457   2.401       .  S
O2452     Zr2458   2.384       .  S
O2452      H2487   0.966       .  S
O2453     Zr2456   2.410       .  S
O2453     Zr2473   2.375       .  S
O2453      H2490   0.963       .  S
O2454     Zr2457   2.380   1_556  S
O2454     Zr2473   2.385       .  S
Zr2455     O2480   2.443       .  S
Zr2455     O2474   2.487       .  S
Zr2455     O2482   2.451       .  S
Zr2455     O2470   2.472       .  S
Zr2455     O2461   2.404       .  S
Zr2455     O2462   2.418       .  S
Zr2455     O2463   2.382   1_554  S
Zr2455     O2464   2.392       .  S
Zr2456     O2475   2.437       .  S
Zr2456     O2468   2.434       .  S
Zr2456     O2469   2.496       .  S
Zr2456     O2462   2.405   1_556  S
Zr2456     O2463   2.413       .  S
Zr2457     O2459   2.435       .  S
Zr2457     O2481   2.441       .  S
Zr2457     O2483   2.435       .  S
Zr2457     O2461   2.397       .  S
Zr2457     O2464   2.411       .  S
Zr2458     O2484   2.435       .  S
Zr2458     O2485   2.436       .  S
Zr2458     O2460   2.437   1_554  S
Zr2458     O2461   2.384       .  S
Zr2458     O2462   2.385       .  S
O2459      H2496   0.990       .  S
O2460      H2491   0.990   1_556  S
O2460      H2505   0.990       .  S
O2462      H2488   0.963       .  S
O2463     Zr2473   2.389       .  S
O2464     Zr2473   2.378   1_554  S
O2464      H2489   0.966       .  S
C2465      C4410   1.497       .  S
C2466      C4263   1.497       .  S
C2467      C4310   1.487       .  S
O2468      H2504   0.990       .  S
O2469      C2471   1.297       .  A
O2470      C2471   1.292   1_554  A
C2471      C3213   1.520   1_556  S
O2472     Zr2473   2.435       .  S
O2472      H2501   0.990       .  S
Zr2473     O2476   2.435       .  S
Zr2473     O2477   2.440       .  S
Zr2473     O2478   2.389       .  S
O2474      C2479   1.292       .  A
O2475      H2492   0.990       .  S
O2475      H2507   0.990       .  S
O2476      H2493   0.990       .  S
O2477      H2497   0.990   1_556  S
O2477      H2506   0.990       .  S
O2478      C2479   1.274   1_556  A
C2479      C3173   1.486       .  S
O2480      H2499   0.990       .  S
O2480      H2503   0.991       .  S
O2481      H2495   0.990       .  S
O2481      H2502   0.990       .  S
O2482      C2486   1.287       .  A
O2483      C2486   1.283       .  A
O2484      H2494   0.990       .  S
O2485      H2498   0.990       .  S
C2486      C3320   1.469       .  S
Zr2509     O2510   2.440       .  S
Zr2509     O2511   2.437       .  S
Zr2509     O2512   2.428       .  S
Zr2509     O2515   2.444       .  S
Zr2509     O2517   2.380       .  S
Zr2509     O2518   2.385       .  S
Zr2509     O2519   2.408   1_545  S
Zr2509     O2520   2.396   1_545  S
O2510      H2566   0.990       .  S
O2510      H2574   0.990       .  S
O2511      C2531   1.285       .  A
O2512      C2533   1.283       .  A
O2513     Zr2523   2.466   1_545  S
O2513      C2532   1.291       .  A
O2514     Zr2522   2.441       .  S
O2514      C2533   1.285       .  A
O2515      C2532   1.287       .  A
O2516     Zr2524   2.434       .  S
O2516      C2531   1.283       .  A
O2517     Zr2522   2.402       .  S
O2517     Zr2524   2.374       .  S
O2518     Zr2523   2.402   1_545  S
O2518     Zr2524   2.379       .  S
O2518      H2553   0.966       .  S
O2519     Zr2522   2.402   1_565  S
O2519     Zr2539   2.403       .  S
O2519      H2556   0.966       .  S
O2520     Zr2523   2.394       .  S
O2520     Zr2539   2.390       .  S
Zr2521     O2546   2.445       .  S
Zr2521     O2540   2.484       .  S
Zr2521     O2548   2.432       .  S
Zr2521     O2536   2.444       .  S
Zr2521     O2527   2.413   1_565  S
Zr2521     O2528   2.423   1_565  S
Zr2521     O2529   2.377       .  S
Zr2521     O2530   2.382       .  S
Zr2522     O2541   2.437   1_545  S
Zr2522     O2534   2.436       .  S
Zr2522     O2535   2.451       .  S
Zr2522     O2528   2.400       .  S
Zr2522     O2529   2.401   1_545  S
Zr2523     O2525   2.434       .  S
Zr2523     O2547   2.436   1_565  S
Zr2523     O2549   2.462       .  S
Zr2523     O2527   2.392   1_565  S
Zr2523     O2530   2.405       .  S
Zr2524     O2550   2.435       .  S
Zr2524     O2551   2.439       .  S
Zr2524     O2526   2.438       .  S
Zr2524     O2527   2.399       .  S
Zr2524     O2528   2.388       .  S
O2525      H2562   0.990       .  S
O2526      H2557   0.990       .  S
O2526      H2571   0.990       .  S
O2528      H2554   0.963       .  S
O2529     Zr2539   2.390       .  S
O2530     Zr2539   2.386       .  S
O2530      H2555   0.966       .  S
C2531      C3330   1.496       .  S
C2532      C3183   1.492       .  S
C2533      C3263   1.476       .  S
O2534      H2570   0.990       .  S
O2535      C2537   1.286   1_545  A
O2536      C2537   1.286       .  A
C2537      C3943   1.483       .  S
O2538     Zr2539   2.438       .  S
O2538      H2567   0.990       .  S
Zr2539     O2542   2.436       .  S
Zr2539     O2543   2.436       .  S
Zr2539     O2544   2.419       .  S
O2540      C2545   1.294       .  A
O2541      H2558   0.990       .  S
O2541      H2573   0.990       .  S
O2542      H2559   0.990       .  S
O2543      H2563   0.990       .  S
O2543      H2572   0.990       .  S
O2544      C2545   1.280       .  A
C2545      C4060   1.508       .  S
O2546      H2565   0.991       .  S
O2546      H2569   0.990       .  S
O2547      H2561   0.990       .  S
O2547      H2568   0.990       .  S
O2548      C2552   1.284       .  A
O2549      C2552   1.290       .  A
O2550      H2560   0.990       .  S
O2551      H2564   0.990       .  S
C2552      C3903   1.486       .  S
Zr2575     O2576   2.443   1_565  S
Zr2575     O2577   2.477       .  S
Zr2575     O2578   2.465   1_465  S
Zr2575     O2581   2.463       .  S
Zr2575     O2583   2.383   1_455  S
Zr2575     O2584   2.386       .  S
Zr2575     O2585   2.421   1_464  S
Zr2575     O2586   2.417   1_554  S
O2576      H2632   0.990       .  S
O2576      H2640   0.991       .  S
O2577      C2597   1.291   1_455  A
O2578      C2599   1.289       .  A
O2579     Zr2589   2.442       .  S
O2579      C2598   1.286       .  A
O2580     Zr2588   2.462   1_544  S
O2580      C2599   1.290       .  A
O2581      C2598   1.290       .  A
O2582     Zr2590   2.397       .  S
O2582      C2597   1.276       .  A
O2583     Zr2588   2.415   1_554  S
O2583     Zr2590   2.394       .  S
O2584     Zr2589   2.401       .  S
O2584     Zr2590   2.377   1_455  S
O2584      H2619   0.966       .  S
O2585     Zr2588   2.414   1_545  S
O2585     Zr2605   2.391   1_645  S
O2585      H2622   0.964       .  S
O2586     Zr2589   2.394   1_556  S
O2586     Zr2605   2.404       .  S
Zr2587     O2612   2.441       .  S
Zr2587     O2606   2.431       .  S
Zr2587     O2614   2.426       .  S
Zr2587     O2602   2.463       .  S
Zr2587     O2593   2.407   1_556  S
Zr2587     O2594   2.394   1_556  S
Zr2587     O2595   2.379       .  S
Zr2587     O2596   2.388   1_655  S
Zr2588     O2607   2.438   1_565  S
Zr2588     O2600   2.435   1_566  S
Zr2588     O2601   2.479       .  S
Zr2588     O2594   2.398   1_556  S
Zr2588     O2595   2.402       .  S
Zr2589     O2591   2.435   1_554  S
Zr2589     O2613   2.439       .  S
Zr2589     O2615   2.450   1_554  S
Zr2589     O2593   2.399   1_455  S
Zr2589     O2596   2.392   1_554  S
Zr2590     O2616   2.435       .  S
Zr2590     O2617   2.435       .  S
Zr2590     O2592   2.437       .  S
Zr2590     O2593   2.386       .  S
Zr2590     O2594   2.380       .  S
O2591      H2628   0.990       .  S
O2592      H2623   0.990       .  S
O2592      H2637   0.990       .  S
O2594      H2620   0.965       .  S
O2595     Zr2605   2.388   1_655  S
O2596     Zr2605   2.365       .  S
O2596      H2621   0.966       .  S
C2597      C3270   1.482       .  S
C2598      C3190   1.494       .  S
C2599      C3223   1.487       .  S
O2600      H2636   0.990       .  S
O2601      C2603   1.294       .  A
O2602      C2603   1.292       .  A
C2603      C4543   1.510       .  S
O2604     Zr2605   2.436   1_545  S
O2604      H2633   0.990       .  S
Zr2605     O2608   2.435   1_465  S
Zr2605     O2609   2.441       .  S
Zr2605     O2610   2.439   1_455  S
O2606      C2611   1.286       .  A
O2607      H2624   0.990       .  S
O2607      H2639   0.990       .  S
O2608      H2625   0.990       .  S
O2609      H2629   0.990       .  S
O2609      H2638   0.989       .  S
O2610      C2611   1.284       .  A
C2611      C4493   1.494       .  S
O2612      H2631   0.990       .  S
O2612      H2635   0.991       .  S
O2613      H2627   0.990       .  S
O2613      H2634   0.990       .  S
O2614      C2618   1.283       .  A
O2615      C2618   1.287   1_455  A
O2616      H2626   0.989       .  S
O2617      H2630   0.990       .  S
C2618      C4453   1.474       .  S
Zr2641     O2642   2.445       .  S
Zr2641     O2643   2.482       .  S
Zr2641     O2644   2.439   1_455  S
Zr2641     O2647   2.431       .  S
Zr2641     O2649   2.380   1_455  S
Zr2641     O2650   2.386       .  S
Zr2641     O2651   2.424   1_455  S
Zr2641     O2652   2.403       .  S
O2642      H2698   0.990       .  S
O2642      H2706   0.991       .  S
O2643      C2663   1.292       .  A
O2644      C2665   1.284       .  A
O2645     Zr2655   2.458       .  S
O2645      C2664   1.290       .  A
O2646     Zr2654   2.447       .  S
O2646      C2665   1.286       .  A
O2647      C2664   1.284       .  A
O2648     Zr2656   2.447       .  S
O2648      C2663   1.285   1_655  A
O2649     Zr2654   2.414       .  S
O2649     Zr2656   2.383       .  S
O2650     Zr2655   2.404       .  S
O2650     Zr2656   2.379   1_455  S
O2650      H2685   0.966       .  S
O2651     Zr2654   2.405       .  S
O2651     Zr2671   2.398       .  S
O2651      H2688   0.964       .  S
O2652     Zr2655   2.390       .  S
O2652     Zr2671   2.386   1_455  S
Zr2653     O2678   2.443       .  S
Zr2653     O2672   2.487       .  S
Zr2653     O2680   2.413       .  S
Zr2653     O2668   2.438       .  S
Zr2653     O2659   2.413       .  S
Zr2653     O2660   2.417       .  S
Zr2653     O2661   2.371       .  S
Zr2653     O2662   2.385       .  S
Zr2654     O2673   2.435       .  S
Zr2654     O2666   2.435       .  S
Zr2654     O2667   2.462       .  S
Zr2654     O2660   2.395       .  S
Zr2654     O2661   2.399       .  S
Zr2655     O2657   2.435       .  S
Zr2655     O2679   2.435       .  S
Zr2655     O2681   2.466   1_455  S
Zr2655     O2659   2.393   1_455  S
Zr2655     O2662   2.396   1_455  S
Zr2656     O2682   2.435       .  S
Zr2656     O2683   2.435       .  S
Zr2656     O2658   2.437       .  S
Zr2656     O2659   2.406       .  S
Zr2656     O2660   2.410       .  S
O2657      H2694   0.990       .  S
O2658      H2689   0.990       .  S
O2658      H2703   0.990       .  S
O2660      H2686   0.965       .  S
O2661     Zr2671   2.384       .  S
O2662     Zr2671   2.383       .  S
O2662      H2687   0.965       .  S
C2663      C3230   1.517       .  S
C2664      C3343   1.486       .  S
C2665      C3283   1.474       .  S
O2666      H2702   0.990       .  S
O2667      C2669   1.290       .  A
O2668      C2669   1.285       .  A
C2669      C3463   1.495       .  S
O2670     Zr2671   2.436   1_455  S
O2670      H2699   0.990       .  S
Zr2671     O2674   2.437       .  S
Zr2671     O2675   2.436   1_655  S
Zr2671     O2676   2.430       .  S
O2672      C2677   1.294       .  A
O2673      H2690   0.990       .  S
O2673      H2705   0.990       .  S
O2674      H2691   0.990       .  S
O2675      H2695   0.990       .  S
O2675      H2704   0.990       .  S
O2676      C2677   1.283       .  A
C2677      C3403   1.510       .  S
O2678      H2697   0.990       .  S
O2678      H2701   0.991       .  S
O2679      H2693   0.990       .  S
O2679      H2700   0.990       .  S
O2680      C2684   1.277       .  A
O2681      C2684   1.289       .  A
O2682      H2692   0.990       .  S
O2683      H2696   0.990       .  S
C2684      C3363   1.481       .  S
Zr2707     O2708   2.443       .  S
Zr2707     O2709   2.449       .  S
Zr2707     O2710   2.432       .  S
Zr2707     O2713   2.435       .  S
Zr2707     O2715   2.380       .  S
Zr2707     O2716   2.377       .  S
Zr2707     O2717   2.414       .  S
Zr2707     O2718   2.394       .  S
O2708      H2764   0.990       .  S
O2708      H2772   0.991       .  S
O2709      C2729   1.287       .  A
O2710      C2731   1.284       .  A
O2711     Zr2721   2.464       .  S
O2711      C2730   1.289       .  A
O2712     Zr2720   2.491       .  S
O2712      C2731   1.295       .  A
O2713      C2730   1.285       .  A
O2714     Zr2722   2.433       .  S
O2714      C2729   1.282       .  A
O2715     Zr2720   2.407       .  S
O2715     Zr2722   2.383       .  S
O2716     Zr2721   2.389       .  S
O2716     Zr2722   2.387       .  S
O2716      H2751   0.966       .  S
O2717     Zr2720   2.408       .  S
O2717     Zr2737   2.392       .  S
O2717      H2754   0.965       .  S
O2718     Zr2721   2.386       .  S
O2718     Zr2737   2.389       .  S
Zr2719     O2744   2.444       .  S
Zr2719     O2738   2.474       .  S
Zr2719     O2746   2.452       .  S
Zr2719     O2734   2.453       .  S
Zr2719     O2725   2.405       .  S
Zr2719     O2726   2.421       .  S
Zr2719     O2727   2.385       .  S
Zr2719     O2728   2.383       .  S
Zr2720     O2739   2.437       .  S
Zr2720     O2732   2.434       .  S
Zr2720     O2733   2.487       .  S
Zr2720     O2726   2.405       .  S
Zr2720     O2727   2.413       .  S
Zr2721     O2723   2.434       .  S
Zr2721     O2745   2.437       .  S
Zr2721     O2747   2.434       .  S
Zr2721     O2725   2.397       .  S
Zr2721     O2728   2.405       .  S
Zr2722     O2748   2.435       .  S
Zr2722     O2749   2.438       .  S
Zr2722     O2724   2.439       .  S
Zr2722     O2725   2.398       .  S
Zr2722     O2726   2.399       .  S
O2723      H2760   0.990       .  S
O2724      H2755   0.990       .  S
O2724      H2769   0.990       .  S
O2726      H2752   0.965       .  S
O2727     Zr2737   2.386       .  S
O2728     Zr2737   2.384       .  S
O2728      H2753   0.966       .  S
C2729      C4043   1.490       .  S
C2730      C3980   1.489       .  S
C2731      C3893   1.498       .  S
O2732      H2768   0.990       .  S
O2733      C2735   1.295       .  A
O2734      C2735   1.287       .  A
C2735      C3583   1.506       .  S
O2736     Zr2737   2.436       .  S
O2736      H2765   0.990       .  S
Zr2737     O2740   2.434       .  S
Zr2737     O2741   2.437       .  S
Zr2737     O2742   2.413       .  S
O2738      C2743   1.291       .  A
O2739      H2756   0.990       .  S
O2739      H2771   0.990       .  S
O2740      H2757   0.990       .  S
O2741      H2761   0.990       .  S
O2741      H2770   0.990       .  S
O2742      C2743   1.279       .  A
C2743      C3553   1.491       .  S
O2744      H2763   0.991       .  S
O2744      H2767   0.990       .  S
O2745      H2759   0.990       .  S
O2745      H2766   0.990       .  S
O2746      C2750   1.289       .  A
O2747      C2750   1.283       .  A
O2748      H2758   0.990       .  S
O2749      H2762   0.991       .  S
C2750      C3690   1.482       .  S
Zr2773     O2774   2.444   1_655  S
Zr2773     O2775   2.487   1_655  S
Zr2773     O2776   2.464       .  S
Zr2773     O2779   2.467       .  S
Zr2773     O2781   2.387   1_655  S
Zr2773     O2782   2.384   1_655  S
Zr2773     O2783   2.427       .  S
Zr2773     O2784   2.406       .  S
O2774      H2830   0.990       .  S
O2774      H2838   0.990   1_455  S
O2775      C2795   1.294       .  A
O2776      C2797   1.290       .  A
O2777     Zr2787   2.444       .  S
O2777      C2796   1.287       .  A
O2778     Zr2786   2.459       .  S
O2778      C2797   1.288       .  A
O2779      C2796   1.292       .  A
O2780     Zr2788   2.411       .  S
O2780      C2795   1.277       .  A
O2781     Zr2786   2.412   1_455  S
O2781     Zr2788   2.387       .  S
O2782     Zr2787   2.404   1_455  S
O2782     Zr2788   2.383       .  S
O2782      H2817   0.965       .  S
O2783     Zr2786   2.403       .  S
O2783     Zr2803   2.393       .  S
O2783      H2820   0.964       .  S
O2784     Zr2787   2.388       .  S
O2784     Zr2803   2.395       .  S
Zr2785     O2810   2.442       .  S
Zr2785     O2804   2.486       .  S
Zr2785     O2812   2.451       .  S
Zr2785     O2800   2.452       .  S
Zr2785     O2791   2.399       .  S
Zr2785     O2792   2.423       .  S
Zr2785     O2793   2.383       .  S
Zr2785     O2794   2.387       .  S
Zr2786     O2805   2.441       .  S
Zr2786     O2798   2.435       .  S
Zr2786     O2799   2.459       .  S
Zr2786     O2792   2.404       .  S
Zr2786     O2793   2.406       .  S
Zr2787     O2789   2.436       .  S
Zr2787     O2811   2.440       .  S
Zr2787     O2813   2.448       .  S
Zr2787     O2791   2.383       .  S
Zr2787     O2794   2.404       .  S
Zr2788     O2814   2.434       .  S
Zr2788     O2815   2.435       .  S
Zr2788     O2790   2.439       .  S
Zr2788     O2791   2.382   1_455  S
Zr2788     O2792   2.389   1_455  S
O2789      H2826   0.990       .  S
O2790      H2821   0.990       .  S
O2790      H2835   0.990       .  S
O2792      H2818   0.964       .  S
O2793     Zr2803   2.382       .  S
O2794     Zr2803   2.383       .  S
O2794      H2819   0.966       .  S
C2795      C3820   1.506       .  S
C2796      C3773   1.499       .  S
C2797      C3733   1.493       .  S
O2798      H2834   0.990       .  S
O2799      C2801   1.289       .  A
O2800      C2801   1.287       .  A
C2801      C3413   1.493       .  S
O2802     Zr2803   2.436       .  S
O2802      H2831   0.990       .  S
Zr2803     O2806   2.437       .  S
Zr2803     O2807   2.437       .  S
Zr2803     O2808   2.422       .  S
O2804      C2809   1.293       .  A
O2805      H2822   0.990       .  S
O2805      H2837   0.990       .  S
O2806      H2823   0.990       .  S
O2807      H2827   0.990       .  S
O2807      H2836   0.990       .  S
O2808      C2809   1.281       .  A
C2809      C3523   1.509       .  S
O2810      H2829   0.990       .  S
O2810      H2833   0.990       .  S
O2811      H2825   0.990       .  S
O2811      H2832   0.990   1_655  S
O2812      C2816   1.288       .  A
O2813      C2816   1.288       .  A
O2814      H2824   0.990       .  S
O2815      H2828   0.990       .  S
C2816      C3373   1.488       .  S
Zr2839     O2840   2.441       .  S
Zr2839     O2841   2.446       .  S
Zr2839     O2842   2.434       .  S
Zr2839     O2845   2.454       .  S
Zr2839     O2847   2.377       .  S
Zr2839     O2848   2.387   1_554  S
Zr2839     O2849   2.416       .  S
Zr2839     O2850   2.399       .  S
O2840      H2896   0.990       .  S
O2840      H2904   0.990       .  S
O2841      C2861   1.286       .  A
O2842      C2863   1.283       .  A
O2843     Zr2853   2.479       .  S
O2843      C2862   1.294   1_556  A
O2844     Zr2852   2.453       .  S
O2844      C2863   1.286       .  A
O2845      C2862   1.289       .  A
O2846     Zr2854   2.424   1_554  S
O2846      C2861   1.281       .  A
O2847     Zr2852   2.404       .  S
O2847     Zr2854   2.372   1_554  S
O2848     Zr2853   2.409       .  S
O2848     Zr2854   2.386       .  S
O2848      H2883   0.966       .  S
O2849     Zr2852   2.406       .  S
O2849     Zr2869   2.396       .  S
O2849      H2886   0.966       .  S
O2850     Zr2853   2.390   1_554  S
O2850     Zr2869   2.385       .  S
Zr2851     O2876   2.444       .  S
Zr2851     O2870   2.484       .  S
Zr2851     O2878   2.451       .  S
Zr2851     O2866   2.475       .  S
Zr2851     O2857   2.413       .  S
Zr2851     O2858   2.420       .  S
Zr2851     O2859   2.388   1_556  S
Zr2851     O2860   2.390       .  S
Zr2852     O2871   2.437       .  S
Zr2852     O2864   2.435       .  S
Zr2852     O2865   2.449       .  S
Zr2852     O2858   2.410   1_554  S
Zr2852     O2859   2.403       .  S
Zr2853     O2855   2.435       .  S
Zr2853     O2877   2.435       .  S
Zr2853     O2879   2.475       .  S
Zr2853     O2857   2.397       .  S
Zr2853     O2860   2.402       .  S
Zr2854     O2880   2.435       .  S
Zr2854     O2881   2.436       .  S
Zr2854     O2856   2.439       .  S
Zr2854     O2857   2.400       .  S
Zr2854     O2858   2.388       .  S
O2855      H2892   0.990       .  S
O2856      H2887   0.990       .  S
O2856      H2901   0.990   1_556  S
O2858      H2884   0.964       .  S
O2859     Zr2869   2.387       .  S
O2860     Zr2869   2.388   1_556  S
O2860      H2885   0.966       .  S
C2861      C3643   1.490       .  S
C2862      C3590   1.515       .  S
C2863      C3703   1.478       .  S
O2864      H2900   0.990       .  S
O2865      C2867   1.287   1_554  A
O2866      C2867   1.291       .  A
C2867      C4273   1.493       .  S
O2868     Zr2869   2.436       .  S
O2868      H2897   0.990       .  S
Zr2869     O2872   2.436       .  S
Zr2869     O2873   2.439       .  S
Zr2869     O2874   2.403       .  S
O2870      C2875   1.293       .  A
O2871      H2888   0.990       .  S
O2871      H2903   0.990       .  S
O2872      H2889   0.990       .  S
O2873      H2893   0.990   1_554  S
O2873      H2902   0.990       .  S
O2874      C2875   1.277   1_554  A
C2875      C4423   1.495       .  S
O2876      H2895   0.990       .  S
O2876      H2899   0.990       .  S
O2877      H2891   0.990       .  S
O2877      H2898   0.990       .  S
O2878      C2882   1.288       .  A
O2879      C2882   1.292       .  A
O2880      H2890   0.989       .  S
O2881      H2894   0.990       .  S
C2882      C4363   1.496       .  S
Zr2905     O2906   2.441       .  S
Zr2905     O2907   2.449       .  S
Zr2905     O2908   2.468       .  S
Zr2905     O2911   2.461       .  S
Zr2905     O2913   2.392       .  S
Zr2905     O2914   2.376   1_565  S
Zr2905     O2915   2.415       .  S
Zr2905     O2916   2.411   1_565  S
O2906      H2962   0.990       .  S
O2906      H2970   0.990       .  S
O2907      C2927   1.287       .  A
O2908      C2929   1.291       .  A
O2909     Zr2919   2.440       .  S
O2909      C2928   1.284       .  A
O2910     Zr2918   2.466       .  S
O2910      C2929   1.291       .  A
O2911      C2928   1.289   1_565  A
O2912     Zr2920   2.409       .  S
O2912      C2927   1.279   1_545  A
O2913     Zr2918   2.412       .  S
O2913     Zr2920   2.388   1_565  S
O2914     Zr2919   2.387       .  S
O2914     Zr2920   2.375       .  S
O2914      H2949   0.966       .  S
O2915     Zr2918   2.410       .  S
O2915     Zr2935   2.385       .  S
O2915      H2952   0.964       .  S
O2916     Zr2919   2.392       .  S
O2916     Zr2935   2.403   1_545  S
Zr2917     O2942   2.444       .  S
Zr2917     O2936   2.476       .  S
Zr2917     O2944   2.470       .  S
Zr2917     O2932   2.457       .  S
Zr2917     O2923   2.401       .  S
Zr2917     O2924   2.424       .  S
Zr2917     O2925   2.383       .  S
Zr2917     O2926   2.393       .  S
Zr2918     O2937   2.438       .  S
Zr2918     O2930   2.434       .  S
Zr2918     O2931   2.482       .  S
Zr2918     O2924   2.396   1_565  S
Zr2918     O2925   2.404   1_565  S
Zr2919     O2921   2.433       .  S
Zr2919     O2943   2.441       .  S
Zr2919     O2945   2.416       .  S
Zr2919     O2923   2.394       .  S
Zr2919     O2926   2.407       .  S
Zr2920     O2946   2.435       .  S
Zr2920     O2947   2.437       .  S
Zr2920     O2922   2.437       .  S
Zr2920     O2923   2.386       .  S
Zr2920     O2924   2.387       .  S
O2921      H2958   0.990       .  S
O2922      H2953   0.990       .  S
O2922      H2967   0.990   1_545  S
O2924      H2950   0.964       .  S
O2925     Zr2935   2.388   1_545  S
O2926     Zr2935   2.382   1_545  S
O2926      H2951   0.966       .  S
C2927      C3953   1.486       .  S
C2928      C3913   1.489       .  S
C2929      C4000   1.500       .  S
O2930      H2966   0.990       .  S
O2931      C2933   1.294   1_565  A
O2932      C2933   1.289       .  A
C2933      C4090   1.500       .  S
O2934     Zr2935   2.436       .  S
O2934      H2963   0.990       .  S
Zr2935     O2938   2.436       .  S
Zr2935     O2939   2.437   1_565  S
Zr2935     O2940   2.418   1_565  S
O2936      C2941   1.290       .  A
O2937      H2954   0.989       .  S
O2937      H2969   0.989       .  S
O2938      H2955   0.990       .  S
O2939      H2959   0.990       .  S
O2939      H2968   0.990       .  S
O2940      C2941   1.279       .  A
C2941      C4130   1.494       .  S
O2942      H2961   0.991       .  S
O2942      H2965   0.990       .  S
O2943      H2957   0.990       .  S
O2943      H2964   0.990       .  S
O2944      C2948   1.292       .  A
O2945      C2948   1.280       .  A
O2946      H2956   0.990       .  S
O2947      H2960   0.991       .  S
C2948      C4243   1.476       .  S
Zr2971     O2972   2.446       .  S
Zr2971     O2973   2.461       .  S
Zr2971     O2974   2.420       .  S
Zr2971     O2977   2.424       .  S
Zr2971     O2979   2.373       .  S
Zr2971     O2980   2.386       .  S
Zr2971     O2981   2.418       .  S
Zr2971     O2982   2.400       .  S
O2972      H3028   0.990       .  S
O2972      H3036   0.991       .  S
O2973      C2993   1.287       .  A
O2974      C2995   1.282       .  A
O2975     Zr2985   2.490       .  S
O2975      C2994   1.295       .  A
O2976     Zr2984   2.461       .  S
O2976      C2995   1.289       .  A
O2977      C2994   1.282       .  A
O2978     Zr2986   2.390       .  S
O2978      C2993   1.275       .  A
O2979     Zr2984   2.400       .  S
O2979     Zr2986   2.395       .  S
O2980     Zr2985   2.406       .  S
O2980     Zr2986   2.389       .  S
O2980      H3015   0.966       .  S
O2981     Zr2984   2.391       .  S
O2981     Zr3001   2.376       .  S
O2981      H3018   0.963       .  S
O2982     Zr2985   2.367       .  S
O2982     Zr3001   2.379       .  S
Zr2983     O3008   2.443       .  S
Zr2983     O3002   2.460       .  S
Zr2983     O3010   2.477       .  S
Zr2983     O2998   2.487       .  S
Zr2983     O2989   2.398       .  S
Zr2983     O2990   2.411       .  S
Zr2983     O2991   2.384       .  S
Zr2983     O2992   2.405       .  S
Zr2984     O3003   2.436       .  S
Zr2984     O2996   2.435       .  S
Zr2984     O2997   2.427       .  S
Zr2984     O2990   2.413       .  S
Zr2984     O2991   2.398       .  S
Zr2985     O2987   2.439       .  S
Zr2985     O3009   2.435       .  S
Zr2985     O3011   2.451       .  S
Zr2985     O2989   2.399       .  S
Zr2985     O2992   2.415       .  S
Zr2986     O3012   2.436       .  S
Zr2986     O3013   2.437       .  S
Zr2986     O2988   2.438       .  S
Zr2986     O2989   2.367       .  S
Zr2986     O2990   2.383       .  S
O2987      H3024   0.990       .  S
O2988      H3019   0.990       .  S
O2988      H3033   0.990       .  S
O2990      H3016   0.964       .  S
O2991     Zr3001   2.382       .  S
O2992     Zr3001   2.380       .  S
O2992      H3017   0.966       .  S
C2993      C4123   1.481       .  S
C2994      C4173   1.496       .  S
C2995      C4223   1.479       .  S
O2996      H3032   0.990       .  S
O2997      C2999   1.283       .  A
O2998      C2999   1.295       .  A
C2999      C3443   1.481       .  S
O3000     Zr3001   2.437       .  S
O3000      H3029   0.990       .  S
Zr3001     O3004   2.435       .  S
Zr3001     O3005   2.439       .  S
Zr3001     O3006   2.401       .  S
O3002      C3007   1.287       .  A
O3003      H3020   0.990       .  S
O3003      H3035   0.990       .  S
O3004      H3021   0.991       .  S
O3005      H3025   0.990       .  S
O3005      H3034   0.989       .  S
O3006      C3007   1.274       .  A
C3007      C3503   1.468       .  S
O3008      H3027   0.990       .  S
O3008      H3031   0.991       .  S
O3009      H3023   0.990       .  S
O3009      H3030   0.990       .  S
O3010      C3014   1.294       .  A
O3011      C3014   1.288       .  A
O3012      H3022   0.990       .  S
O3013      H3026   0.990       .  S
C3014      C3393   1.493       .  S
Zr3037     O3038   2.442       .  S
Zr3037     O3039   2.476       .  S
Zr3037     O3040   2.480       .  S
Zr3037     O3043   2.489       .  S
Zr3037     O3045   2.390       .  S
Zr3037     O3046   2.390       .  S
Zr3037     O3047   2.417   1_565  S
Zr3037     O3048   2.407   1_565  S
O3038      H3094   0.990       .  S
O3038      H3102   0.991       .  S
O3039      C3059   1.291       .  A
O3040      C3061   1.292       .  A
O3041     Zr3051   2.456       .  S
O3041      C3060   1.289       .  A
O3042     Zr3050   2.422       .  S
O3042      C3061   1.281       .  A
O3043      C3060   1.296       .  A
O3044     Zr3052   2.394       .  S
O3044      C3059   1.275       .  A
O3045     Zr3050   2.408       .  S
O3045     Zr3052   2.388       .  S
O3046     Zr3051   2.403       .  S
O3046     Zr3052   2.386       .  S
O3046      H3081   0.966       .  S
O3047     Zr3050   2.404   1_545  S
O3047     Zr3067   2.385       .  S
O3047      H3084   0.964       .  S
O3048     Zr3051   2.387   1_545  S
O3048     Zr3067   2.391       .  S
Zr3049     O3074   2.441       .  S
Zr3049     O3068   2.489       .  S
Zr3049     O3076   2.482       .  S
Zr3049     O3064   2.494       .  S
Zr3049     O3055   2.399   1_545  S
Zr3049     O3056   2.418   1_545  S
Zr3049     O3057   2.382       .  S
Zr3049     O3058   2.401       .  S
Zr3050     O3069   2.437   1_565  S
Zr3050     O3062   2.435       .  S
Zr3050     O3063   2.434   1_565  S
Zr3050     O3056   2.399       .  S
Zr3050     O3057   2.398   1_565  S
Zr3051     O3053   2.437   1_565  S
Zr3051     O3075   2.440       .  S
Zr3051     O3077   2.439   1_565  S
Zr3051     O3055   2.392       .  S
Zr3051     O3058   2.414   1_565  S
Zr3052     O3078   2.437       .  S
Zr3052     O3079   2.436       .  S
Zr3052     O3054   2.437       .  S
Zr3052     O3055   2.372       .  S
Zr3052     O3056   2.384       .  S
O3053      H3090   0.990       .  S
O3054      H3085   0.990       .  S
O3054      H3099   0.990       .  S
O3056      H3082   0.964       .  S
O3057     Zr3067   2.384       .  S
O3058     Zr3067   2.383       .  S
O3058      H3083   0.966       .  S
C3059      C4583   1.473       .  S
C3060      C4473   1.510       .  S
C3061      C4523   1.476       .  S
O3062      H3098   0.990       .  S
O3063      C3065   1.284       .  A
O3064      C3065   1.296       .  A
C3065      C4070   1.492       .  S
O3066     Zr3067   2.434       .  S
O3066      H3095   0.990       .  S
Zr3067     O3070   2.438       .  S
Zr3067     O3071   2.437       .  S
Zr3067     O3072   2.412       .  S
O3068      C3073   1.294       .  A
O3069      H3086   0.990       .  S
O3069      H3101   0.990       .  S
O3070      H3087   0.990       .  S
O3071      H3091   0.990       .  S
O3071      H3100   0.990       .  S
O3072      C3073   1.278       .  A
C3073      C4163   1.493       .  S
O3074      H3093   0.990       .  S
O3074      H3097   0.991       .  S
O3075      H3089   0.990       .  S
O3075      H3096   0.990       .  S
O3076      C3080   1.294       .  A
O3077      C3080   1.285       .  A
O3078      H3088   0.990       .  S
O3079      H3092   0.990       .  S
C3080      C4110   1.483       .  S
Zr3103     O3104   2.445       .  S
Zr3103     O3105   2.463       .  S
Zr3103     O3106   2.431       .  S
Zr3103     O3109   2.426       .  S
Zr3103     O3111   2.380   1_455  S
Zr3103     O3112   2.387       .  S
Zr3103     O3113   2.413       .  S
Zr3103     O3114   2.388       .  S
O3104      H3160   0.990       .  S
O3104      H3168   0.991       .  S
O3105      C3125   1.287       .  A
O3106      C3127   1.283       .  A
O3107     Zr3117   2.460       .  S
O3107      C3126   1.290       .  A
O3108     Zr3116   2.461       .  S
O3108      C3127   1.289   1_655  A
O3109      C3126   1.283       .  A
O3110     Zr3118   2.425   1_455  S
O3110      C3125   1.282       .  A
O3111     Zr3116   2.408       .  S
O3111     Zr3118   2.386       .  S
O3112     Zr3117   2.407       .  S
O3112     Zr3118   2.383   1_455  S
O3112      H3147   0.966       .  S
O3113     Zr3116   2.401   1_455  S
O3113     Zr3133   2.374       .  S
O3113      H3150   0.964       .  S
O3114     Zr3117   2.381       .  S
O3114     Zr3133   2.371       .  S
Zr3115     O3140   2.443       .  S
Zr3115     O3134   2.454       .  S
Zr3115     O3142   2.446       .  S
Zr3115     O3130   2.449       .  S
Zr3115     O3121   2.406       .  S
Zr3115     O3122   2.413       .  S
Zr3115     O3123   2.382       .  S
Zr3115     O3124   2.382   1_655  S
Zr3116     O3135   2.437       .  S
Zr3116     O3128   2.438       .  S
Zr3116     O3129   2.464       .  S
Zr3116     O3122   2.407       .  S
Zr3116     O3123   2.408       .  S
Zr3117     O3119   2.436       .  S
Zr3117     O3141   2.437       .  S
Zr3117     O3143   2.457       .  S
Zr3117     O3121   2.398   1_455  S
Zr3117     O3124   2.406       .  S
Zr3118     O3144   2.437   1_655  S
Zr3118     O3145   2.434       .  S
Zr3118     O3120   2.439       .  S
Zr3118     O3121   2.401       .  S
Zr3118     O3122   2.399       .  S
O3119      H3156   0.990       .  S
O3120      H3151   0.990       .  S
O3120      H3165   0.990       .  S
O3122      H3148   0.965       .  S
O3123     Zr3133   2.382   1_655  S
O3124     Zr3133   2.386       .  S
O3124      H3149   0.966       .  S
C3125      C3753   1.495       .  S
C3126      C3863   1.475       .  S
C3127      C3713   1.478       .  S
O3128      H3164   0.990       .  S
O3129      C3131   1.290       .  A
O3130      C3131   1.288       .  A
C3131      C4593   1.492       .  S
O3132     Zr3133   2.434       .  S
O3132      H3161   0.990       .  S
Zr3133     O3136   2.437       .  S
Zr3133     O3137   2.439       .  S
Zr3133     O3138   2.383       .  S
O3134      C3139   1.287       .  A
O3135      H3152   0.990       .  S
O3135      H3167   0.990       .  S
O3136      H3153   0.990   1_455  S
O3137      H3157   0.990       .  S
O3137      H3166   0.990       .  S
O3138      C3139   1.272   1_455  A
C3139      C4433   1.464       .  S
O3140      H3159   0.991       .  S
O3140      H3163   0.990       .  S
O3141      H3155   0.990       .  S
O3141      H3162   0.990       .  S
O3142      C3146   1.285   1_655  A
O3143      C3146   1.287       .  A
O3144      H3154   0.990       .  S
O3145      H3158   0.990       .  S
C3146      C4483   1.487       .  S
C3169      C3170   1.408       .  A
C3169      C3174   1.407       .  A
C3169      H3176   1.082       .  S
C3170      C3171   1.403   1_554  A
C3171      C3172   1.399       .  A
C3171      F3178   1.358       .  S
C3172      C3173   1.408   1_556  A
C3172      H3177   1.084       .  S
C3173      C3174   1.406       .  A
C3174      F3175   1.357       .  S
C3179      C3180   1.411       .  A
C3179      C3184   1.405       .  A
C3179      H3186   1.083       .  S
C3180      C3181   1.409       .  A
C3181      C3182   1.410       .  A
C3181      F3188   1.356   1_545  S
C3182      C3183   1.409       .  A
C3182      H3187   1.083   1_545  S
C3183      C3184   1.405       .  A
C3184      F3185   1.357       .  S
C3189      C3190   1.408       .  A
C3189      C3194   1.407       .  A
C3189      H3196   1.083       .  S
C3190      C3191   1.407       .  A
C3191      C3192   1.406       .  A
C3191      F3198   1.357       .  S
C3192      C3193   1.409       .  A
C3192      H3197   1.082       .  S
C3193      C3194   1.410       .  A
C3194      F3195   1.357       .  S
C3199      C3200   1.405       .  A
C3199      C3204   1.396       .  A
C3199      H3206   1.083       .  S
C3200      C3201   1.408       .  A
C3201      C3202   1.395       .  A
C3201      F3208   1.357       .  S
C3202      C3203   1.403       .  A
C3202      H3207   1.083       .  S
C3203      C3204   1.407       .  A
C3204      F3205   1.358       .  S
C3209      C3210   1.405       .  A
C3209      C3214   1.411       .  A
C3209      H3216   1.081       .  S
C3210      C3211   1.417   1_554  A
C3211      C3212   1.416       .  A
C3211      F3218   1.357       .  S
C3212      C3213   1.411   1_556  A
C3212      H3217   1.083       .  S
C3213      C3214   1.418       .  A
C3214      F3215   1.356       .  S
C3219      C3220   1.407       .  A
C3219      C3224   1.408       .  A
C3219      H3226   1.082       .  S
C3220      C3221   1.406   1_554  A
C3221      C3222   1.406       .  A
C3221      F3228   1.357   1_655  S
C3222      C3223   1.406   1_556  A
C3222      H3227   1.083       .  S
C3223      C3224   1.406       .  A
C3224      F3225   1.357       .  S
C3229      C3230   1.419       .  A
C3229      C3234   1.417       .  A
C3229      H3236   1.083   1_455  S
C3230      C3231   1.411       .  A
C3231      C3232   1.406       .  A
C3231      F3238   1.357       .  S
C3232      C3233   1.411       .  A
C3232      H3237   1.084       .  S
C3233      C3234   1.406       .  A
C3234      F3235   1.356       .  S
C3239      C3240   1.405       .  A
C3239      C3244   1.393       .  A
C3239      H3246   1.083       .  S
C3240      C3241   1.406   1_455  A
C3241      C3242   1.390       .  A
C3241      F3248   1.357       .  S
C3242      C3243   1.403   1_655  A
C3242      H3247   1.084       .  S
C3243      C3244   1.406       .  A
C3244      F3245   1.357       .  S
C3249      C3250   1.404   1_545  A
C3249      C3254   1.394       .  A
C3249      H3256   1.084       .  S
C3250      C3251   1.409       .  A
C3251      C3252   1.394       .  A
C3251      F3258   1.358       .  S
C3252      C3253   1.398   1_565  A
C3252      H3257   1.083       .  S
C3253      C3254   1.401       .  A
C3254      F3255   1.357       .  S
C3259      C3260   1.404       .  A
C3259      C3264   1.398       .  A
C3259      H3266   1.084       .  S
C3260      C3261   1.408       .  A
C3261      C3262   1.402       .  A
C3261      F3268   1.357       .  S
C3262      C3263   1.403       .  A
C3262      H3267   1.083       .  S
C3263      C3264   1.406       .  A
C3264      F3265   1.358       .  S
C3269      C3270   1.407       .  A
C3269      C3274   1.401       .  A
C3269      H3276   1.083   1_655  S
C3270      C3271   1.405   1_565  A
C3271      C3272   1.404       .  A
C3271      F3278   1.357       .  S
C3272      C3273   1.406   1_545  A
C3272      H3277   1.083       .  S
C3273      C3274   1.404       .  A
C3274      F3275   1.358   1_655  S
C3279      C3280   1.411       .  A
C3279      C3284   1.401       .  A
C3279      H3286   1.083       .  S
C3280      C3281   1.406   1_655  A
C3281      C3282   1.397   1_455  A
C3281      F3288   1.357       .  S
C3282      C3283   1.405       .  A
C3282      H3287   1.084   1_655  S
C3283      C3284   1.402       .  A
C3284      F3285   1.357       .  S
C3289      C3290   1.404       .  A
C3289      C3294   1.397       .  A
C3289      H3296   1.084       .  S
C3290      C3291   1.405       .  A
C3291      C3292   1.398       .  A
C3291      F3298   1.358       .  S
C3292      C3293   1.404       .  A
C3292      H3297   1.084       .  S
C3293      C3294   1.403       .  A
C3294      F3295   1.358       .  S
C3299      C3300   1.405       .  A
C3299      C3304   1.393       .  A
C3299      H3306   1.084       .  S
C3300      C3301   1.400       .  A
C3301      C3302   1.390       .  A
C3301      F3308   1.357       .  S
C3302      C3303   1.406       .  A
C3302      H3307   1.083       .  S
C3303      C3304   1.407       .  A
C3304      F3305   1.358       .  S
C3309      C3310   1.399       .  A
C3309      C3314   1.398       .  A
C3309      H3316   1.081       .  S
C3310      C3311   1.403       .  A
C3311      C3312   1.398       .  A
C3311      F3318   1.358       .  S
C3312      C3313   1.408       .  A
C3312      H3317   1.083       .  S
C3313      C3314   1.411       .  A
C3314      F3315   1.358       .  S
C3319      C3320   1.401       .  A
C3319      C3324   1.394       .  A
C3319      H3326   1.084       .  S
C3320      C3321   1.404       .  A
C3321      C3322   1.404       .  A
C3321      F3328   1.357       .  S
C3322      C3323   1.406       .  A
C3322      H3327   1.083       .  S
C3323      C3324   1.406       .  A
C3324      F3325   1.358       .  S
C3329      C3330   1.414       .  A
C3329      C3334   1.407       .  A
C3329      H3336   1.083       .  S
C3330      C3331   1.411       .  A
C3331      C3332   1.396       .  A
C3331      F3338   1.358       .  S
C3332      C3333   1.404       .  A
C3332      H3337   1.084       .  S
C3333      C3334   1.402       .  A
C3334      F3335   1.357       .  S
C3339      C3340   1.405       .  A
C3339      C3344   1.402       .  A
C3339      H3346   1.083       .  S
C3340      C3341   1.416       .  A
C3341      C3342   1.399       .  A
C3341      F3348   1.358       .  S
C3342      C3343   1.400       .  A
C3342      H3347   1.083       .  S
C3343      C3344   1.412       .  A
C3344      F3345   1.358       .  S
C3349      C3350   1.405       .  A
C3349      C3354   1.399       .  A
C3349      H3356   1.084       .  S
C3350      C3351   1.407       .  A
C3351      C3352   1.397       .  A
C3351      F3358   1.357       .  S
C3352      C3353   1.400       .  A
C3352      H3357   1.084       .  S
C3353      C3354   1.406       .  A
C3354      F3355   1.359       .  S
C3359      C3360   1.406       .  A
C3359      C3364   1.401       .  A
C3359      H3366   1.083       .  S
C3360      C3361   1.413       .  A
C3361      C3362   1.400       .  A
C3361      F3368   1.357       .  S
C3362      C3363   1.401       .  A
C3362      H3367   1.083       .  S
C3363      C3364   1.411       .  A
C3364      F3365   1.358       .  S
C3369      C3370   1.406       .  A
C3369      C3374   1.403       .  A
C3369      H3376   1.083       .  S
C3370      C3371   1.405       .  A
C3371      C3372   1.402       .  A
C3371      F3378   1.357       .  S
C3372      C3373   1.408       .  A
C3372      H3377   1.084       .  S
C3373      C3374   1.407       .  A
C3374      F3375   1.357       .  S
C3379      C3380   1.403       .  A
C3379      C3384   1.390       .  A
C3379      H3386   1.084       .  S
C3380      C3381   1.401       .  A
C3381      C3382   1.398       .  A
C3381      F3388   1.357       .  S
C3382      C3383   1.411       .  A
C3382      H3387   1.083       .  S
C3383      C3384   1.408       .  A
C3384      F3385   1.358       .  S
C3389      C3390   1.407       .  A
C3389      C3394   1.409       .  A
C3389      H3396   1.083       .  S
C3390      C3391   1.409       .  A
C3391      C3392   1.403       .  A
C3391      F3398   1.357       .  S
C3392      C3393   1.405       .  A
C3392      H3397   1.084       .  S
C3393      C3394   1.409       .  A
C3394      F3395   1.357       .  S
C3399      C3400   1.408       .  A
C3399      C3404   1.404       .  A
C3399      H3406   1.084       .  S
C3400      C3401   1.405       .  A
C3401      C3402   1.412       .  A
C3401      F3408   1.357       .  S
C3402      C3403   1.417       .  A
C3402      H3407   1.083       .  S
C3403      C3404   1.411       .  A
C3404      F3405   1.357       .  S
C3409      C3410   1.404       .  A
C3409      C3414   1.401       .  A
C3409      H3416   1.083       .  S
C3410      C3411   1.413       .  A
C3411      C3412   1.406       .  A
C3411      F3418   1.358       .  S
C3412      C3413   1.405       .  A
C3412      H3417   1.083       .  S
C3413      C3414   1.412       .  A
C3414      F3415   1.357       .  S
C3419      C3420   1.410       .  A
C3419      C3424   1.395       .  A
C3419      H3426   1.083       .  S
C3420      C3421   1.402       .  A
C3421      C3422   1.388       .  A
C3421      F3428   1.358       .  S
C3422      C3423   1.411       .  A
C3422      H3427   1.083       .  S
C3423      C3424   1.403       .  A
C3424      F3425   1.358       .  S
C3429      C3430   1.403       .  A
C3429      C3434   1.396       .  A
C3429      H3436   1.084       .  S
C3430      C3431   1.408       .  A
C3431      C3432   1.401       .  A
C3431      F3438   1.358       .  S
C3432      C3433   1.402       .  A
C3432      H3437   1.084       .  S
C3433      C3434   1.403       .  A
C3434      F3435   1.358       .  S
C3439      C3440   1.405       .  A
C3439      C3444   1.401       .  A
C3439      H3446   1.084       .  S
C3440      C3441   1.407       .  A
C3441      C3442   1.406       .  A
C3441      F3448   1.355       .  S
C3442      C3443   1.403       .  A
C3442      H3447   1.083       .  S
C3443      C3444   1.407       .  A
C3444      F3445   1.358       .  S
C3449      C3450   1.408       .  A
C3449      C3454   1.399       .  A
C3449      H3456   1.083       .  S
C3450      C3451   1.416       .  A
C3451      C3452   1.407       .  A
C3451      F3458   1.357       .  S
C3452      C3453   1.402       .  A
C3452      H3457   1.083       .  S
C3453      C3454   1.407       .  A
C3454      F3455   1.359       .  S
C3459      C3460   1.405       .  A
C3459      C3464   1.403       .  A
C3459      H3466   1.083       .  S
C3460      C3461   1.417       .  A
C3461      C3462   1.406       .  A
C3461      F3468   1.357       .  S
C3462      C3463   1.404       .  A
C3462      H3467   1.083       .  S
C3463      C3464   1.412       .  A
C3464      F3465   1.357       .  S
C3469      C3470   1.395       .  A
C3469      C3474   1.389       .  A
C3469      H3476   1.084       .  S
C3470      C3471   1.405       .  A
C3471      C3472   1.398       .  A
C3471      F3478   1.356       .  S
C3472      C3473   1.402       .  A
C3472      H3477   1.083       .  S
C3473      C3474   1.407       .  A
C3474      F3475   1.356       .  S
C3479      C3480   1.410       .  A
C3479      C3484   1.394       .  A
C3479      H3486   1.084       .  S
C3480      C3481   1.403       .  A
C3481      C3482   1.393       .  A
C3481      F3488   1.357       .  S
C3482      C3483   1.408       .  A
C3482      H3487   1.083       .  S
C3483      C3484   1.404       .  A
C3484      F3485   1.358       .  S
C3489      C3490   1.405       .  A
C3489      C3494   1.393       .  A
C3489      H3496   1.083       .  S
C3490      C3491   1.410       .  A
C3491      C3492   1.399       .  A
C3491      F3498   1.357       .  S
C3492      C3493   1.405       .  A
C3492      H3497   1.083       .  S
C3493      C3494   1.407       .  A
C3494      F3495   1.358       .  S
C3499      C3500   1.408       .  A
C3499      C3504   1.391       .  A
C3499      H3506   1.084       .  S
C3500      C3501   1.408       .  A
C3501      C3502   1.408       .  A
C3501      F3508   1.357       .  S
C3502      C3503   1.407       .  A
C3502      H3507   1.083       .  S
C3503      C3504   1.398       .  A
C3504      F3505   1.358       .  S
C3509      C3510   1.409       .  A
C3509      C3514   1.404       .  A
C3509      H3516   1.084       .  S
C3510      C3511   1.403       .  A
C3511      C3512   1.400       .  A
C3511      F3518   1.357       .  S
C3512      C3513   1.410       .  A
C3512      H3517   1.083       .  S
C3513      C3514   1.408       .  A
C3514      F3515   1.358       .  S
C3519      C3520   1.409       .  A
C3519      C3524   1.412       .  A
C3519      H3526   1.083       .  S
C3520      C3521   1.404       .  A
C3521      C3522   1.405       .  A
C3521      F3528   1.358       .  S
C3522      C3523   1.413       .  A
C3522      H3527   1.083       .  S
C3523      C3524   1.413       .  A
C3524      F3525   1.357       .  S
C3529      C3530   1.411       .  A
C3529      C3534   1.404       .  A
C3529      H3536   1.084       .  S
C3530      C3531   1.406       .  A
C3531      C3532   1.404       .  A
C3531      F3538   1.357       .  S
C3532      C3533   1.406       .  A
C3532      H3537   1.083       .  S
C3533      C3534   1.402       .  A
C3534      F3535   1.358       .  S
C3539      C3540   1.406       .  A
C3539      C3544   1.402       .  A
C3539      H3546   1.084       .  S
C3540      C3541   1.402       .  A
C3541      C3542   1.404       .  A
C3541      F3548   1.357       .  S
C3542      C3543   1.414       .  A
C3542      H3547   1.083       .  S
C3543      C3544   1.409       .  A
C3544      F3545   1.357       .  S
C3549      C3550   1.410       .  A
C3549      C3554   1.395       .  A
C3549      H3556   1.084       .  S
C3550      C3551   1.406       .  A
C3551      C3552   1.412       .  A
C3551      F3558   1.357       .  S
C3552      C3553   1.415       .  A
C3552      H3557   1.083       .  S
C3553      C3554   1.402       .  A
C3554      F3555   1.358       .  S
C3559      C3560   1.409       .  A
C3559      C3564   1.391       .  A
C3559      H3566   1.084       .  S
C3560      C3561   1.403       .  A
C3561      C3562   1.394       .  A
C3561      F3568   1.357       .  S
C3562      C3563   1.408       .  A
C3562      H3567   1.083       .  S
C3563      C3564   1.406       .  A
C3564      F3565   1.358       .  S
C3569      C3570   1.407       .  A
C3569      C3574   1.404       .  A
C3569      H3576   1.084       .  S
C3570      C3571   1.412   1_556  A
C3571      C3572   1.414       .  A
C3571      F3578   1.357       .  S
C3572      C3573   1.408   1_554  A
C3572      H3577   1.083       .  S
C3573      C3574   1.407       .  A
C3574      F3575   1.357       .  S
C3579      C3580   1.416       .  A
C3579      C3584   1.410       .  A
C3579      H3586   1.083       .  S
C3580      C3581   1.408       .  A
C3581      C3582   1.410       .  A
C3581      F3588   1.357       .  S
C3582      C3583   1.413       .  A
C3582      H3587   1.083       .  S
C3583      C3584   1.408       .  A
C3584      F3585   1.357       .  S
C3589      C3590   1.413       .  A
C3589      C3594   1.408       .  A
C3589      H3596   1.082       .  S
C3590      C3591   1.414       .  A
C3591      C3592   1.413       .  A
C3591      F3598   1.357   1_554  S
C3592      C3593   1.410       .  A
C3592      H3597   1.083   1_554  S
C3593      C3594   1.405       .  A
C3594      F3595   1.355       .  S
C3599      C3600   1.403       .  A
C3599      C3604   1.392       .  A
C3599      H3606   1.082       .  S
C3600      C3601   1.410   1_554  A
C3601      C3602   1.394       .  A
C3601      F3608   1.358       .  S
C3602      C3603   1.403       .  A
C3602      H3607   1.083       .  S
C3603      C3604   1.411   1_556  A
C3604      F3605   1.358       .  S
C3609      C3610   1.407       .  A
C3609      C3614   1.395       .  A
C3609      H3616   1.084       .  S
C3610      C3611   1.403       .  A
C3611      C3612   1.394       .  A
C3611      F3618   1.357       .  S
C3612      C3613   1.408       .  A
C3612      H3617   1.083       .  S
C3613      C3614   1.408       .  A
C3614      F3615   1.358       .  S
C3619      C3620   1.406       .  A
C3619      C3624   1.407       .  A
C3619      H3626   1.080       .  S
C3620      C3621   1.404       .  A
C3621      C3622   1.402       .  A
C3621      F3628   1.357       .  S
C3622      C3623   1.411       .  A
C3622      H3627   1.083       .  S
C3623      C3624   1.408       .  A
C3624      F3625   1.356       .  S
C3629      C3630   1.402       .  A
C3629      C3634   1.397       .  A
C3629      H3636   1.084       .  S
C3630      C3631   1.410       .  A
C3631      C3632   1.399       .  A
C3631      F3638   1.358       .  S
C3632      C3633   1.405       .  A
C3632      H3637   1.083       .  S
C3633      C3634   1.412       .  A
C3634      F3635   1.357       .  S
C3639      C3640   1.404       .  A
C3639      C3644   1.403       .  A
C3639      H3646   1.083       .  S
C3640      C3641   1.404       .  A
C3641      C3642   1.402       .  A
C3641      F3648   1.358       .  S
C3642      C3643   1.408       .  A
C3642      H3647   1.083       .  S
C3643      C3644   1.411       .  A
C3644      F3645   1.357   1_554  S
C3649      C3650   1.410       .  A
C3649      C3654   1.393       .  A
C3649      H3656   1.083       .  S
C3650      C3651   1.411       .  A
C3651      C3652   1.401       .  A
C3651      F3658   1.357       .  S
C3652      C3653   1.401       .  A
C3652      H3657   1.079       .  S
C3653      C3654   1.400       .  A
C3654      F3655   1.358       .  S
C3659      C3660   1.405       .  A
C3659      C3664   1.398       .  A
C3659      H3666   1.084       .  S
C3660      C3661   1.405       .  A
C3661      C3662   1.404       .  A
C3661      F3668   1.352       .  S
C3662      C3663   1.404       .  A
C3662      H3667   1.083       .  S
C3663      C3664   1.407       .  A
C3664      F3665   1.358       .  S
C3669      C3670   1.406       .  A
C3669      C3674   1.390       .  A
C3669      H3676   1.083       .  S
C3670      C3671   1.411       .  A
C3671      C3672   1.397       .  A
C3671      F3678   1.357       .  S
C3672      C3673   1.402       .  A
C3672      H3677   1.083       .  S
C3673      C3674   1.402       .  A
C3674      F3675   1.356       .  S
C3679      C3680   1.403       .  A
C3679      C3684   1.399       .  A
C3679      H3686   1.083       .  S
C3680      C3681   1.419       .  A
C3681      C3682   1.406       .  A
C3681      F3688   1.358       .  S
C3682      C3683   1.401       .  A
C3682      H3687   1.083       .  S
C3683      C3684   1.411       .  A
C3684      F3685   1.358       .  S
C3689      C3690   1.407       .  A
C3689      C3694   1.408       .  A
C3689      H3696   1.083       .  S
C3690      C3691   1.404       .  A
C3691      C3692   1.396       .  A
C3691      F3698   1.358       .  S
C3692      C3693   1.406       .  A
C3692      H3697   1.084       .  S
C3693      C3694   1.408       .  A
C3694      F3695   1.357       .  S
C3699      C3700   1.409       .  A
C3699      C3704   1.403       .  A
C3699      H3706   1.083       .  S
C3700      C3701   1.404       .  A
C3701      C3702   1.402       .  A
C3701      F3708   1.353       .  S
C3702      C3703   1.404       .  A
C3702      H3707   1.084       .  S
C3703      C3704   1.404       .  A
C3704      F3705   1.357       .  S
C3709      C3710   1.411   1_655  A
C3709      C3714   1.400       .  A
C3709      H3716   1.083       .  S
C3710      C3711   1.404       .  A
C3711      C3712   1.399       .  A
C3711      F3718   1.358       .  S
C3712      C3713   1.409       .  A
C3712      H3717   1.084       .  S
C3713      C3714   1.401   1_455  A
C3714      F3715   1.357       .  S
C3719      C3720   1.404       .  A
C3719      C3724   1.401       .  A
C3719      H3726   1.083       .  S
C3720      C3721   1.414       .  A
C3721      C3722   1.405       .  A
C3721      F3728   1.357       .  S
C3722      C3723   1.404       .  A
C3722      H3727   1.084       .  S
C3723      C3724   1.411       .  A
C3724      F3725   1.358       .  S
C3729      C3730   1.406       .  A
C3729      C3734   1.402       .  A
C3729      H3736   1.084       .  S
C3730      C3731   1.409       .  A
C3731      C3732   1.408       .  A
C3731      F3738   1.357   1_655  S
C3732      C3733   1.407       .  A
C3732      H3737   1.083   1_655  S
C3733      C3734   1.409       .  A
C3734      F3735   1.358       .  S
C3739      C3740   1.404   1_455  A
C3739      C3744   1.393       .  A
C3739      H3746   1.083       .  S
C3740      C3741   1.407       .  A
C3741      C3742   1.394       .  A
C3741      F3748   1.358       .  S
C3742      C3743   1.405   1_655  A
C3742      H3747   1.083       .  S
C3743      C3744   1.410       .  A
C3744      F3745   1.358       .  S
C3749      C3750   1.406       .  A
C3749      C3754   1.408       .  A
C3749      H3756   1.083       .  S
C3750      C3751   1.406       .  A
C3751      C3752   1.401       .  A
C3751      F3758   1.358   1_455  S
C3752      C3753   1.408       .  A
C3752      H3757   1.083   1_455  S
C3753      C3754   1.411       .  A
C3754      F3755   1.357       .  S
C3759      C3760   1.409       .  A
C3759      C3764   1.409       .  A
C3759      H3766   1.080       .  S
C3760      C3761   1.406       .  A
C3761      C3762   1.402       .  A
C3761      F3768   1.357       .  S
C3762      C3763   1.409       .  A
C3762      H3767   1.083       .  S
C3763      C3764   1.409       .  A
C3764      F3765   1.357       .  S
C3769      C3770   1.404       .  A
C3769      C3774   1.402       .  A
C3769      H3776   1.082       .  S
C3770      C3771   1.408       .  A
C3771      C3772   1.408       .  A
C3771      F3778   1.357       .  S
C3772      C3773   1.410       .  A
C3772      H3777   1.083       .  S
C3773      C3774   1.410       .  A
C3774      F3775   1.357       .  S
C3779      C3780   1.400       .  A
C3779      C3784   1.389       .  A
C3779      H3786   1.084       .  S
C3780      C3781   1.411       .  A
C3781      C3782   1.394       .  A
C3781      F3788   1.357       .  S
C3782      C3783   1.399       .  A
C3782      H3787   1.082       .  S
C3783      C3784   1.415       .  A
C3784      F3785   1.359       .  S
C3789      C3790   1.410       .  A
C3789      C3794   1.393       .  A
C3789      H3796   1.083       .  S
C3790      C3791   1.407       .  A
C3791      C3792   1.398       .  A
C3791      F3798   1.357       .  S
C3792      C3793   1.408       .  A
C3792      H3797   1.084       .  S
C3793      C3794   1.402       .  A
C3794      F3795   1.358       .  S
C3799      C3800   1.406       .  A
C3799      C3804   1.408       .  A
C3799      H3806   1.083       .  S
C3800      C3801   1.419       .  A
C3801      C3802   1.406       .  A
C3801      F3808   1.357       .  S
C3802      C3803   1.401       .  A
C3802      H3807   1.083       .  S
C3803      C3804   1.412       .  A
C3804      F3805   1.358       .  S
C3809      C3810   1.412       .  A
C3809      C3814   1.397       .  A
C3809      H3816   1.083       .  S
C3810      C3811   1.408       .  A
C3811      C3812   1.414       .  A
C3811      F3818   1.354       .  S
C3812      C3813   1.411       .  A
C3812      H3817   1.083       .  S
C3813      C3814   1.404       .  A
C3814      F3815   1.358       .  S
C3819      C3820   1.398       .  A
C3819      C3824   1.395       .  A
C3819      H3826   1.083       .  S
C3820      C3821   1.423       .  A
C3821      C3822   1.416       .  A
C3821      F3828   1.356       .  S
C3822      C3823   1.402       .  A
C3822      H3827   1.083       .  S
C3823      C3824   1.423       .  A
C3824      F3825   1.358       .  S
C3829      C3830   1.409       .  A
C3829      C3834   1.401       .  A
C3829      H3836   1.083       .  S
C3830      C3831   1.408       .  A
C3831      C3832   1.395       .  A
C3831      F3838   1.357       .  S
C3832      C3833   1.404       .  A
C3832      H3837   1.084       .  S
C3833      C3834   1.404       .  A
C3834      F3835   1.357       .  S
C3839      C3840   1.406       .  A
C3839      C3844   1.396       .  A
C3839      H3846   1.083       .  S
C3840      C3841   1.410       .  A
C3841      C3842   1.389       .  A
C3841      F3848   1.358       .  S
C3842      C3843   1.397       .  A
C3842      H3847   1.083       .  S
C3843      C3844   1.401       .  A
C3844      F3845   1.357       .  S
C3849      C3850   1.405       .  A
C3849      C3854   1.398       .  A
C3849      H3856   1.084       .  S
C3850      C3851   1.408       .  A
C3851      C3852   1.409       .  A
C3851      F3858   1.357       .  S
C3852      C3853   1.406       .  A
C3852      H3857   1.083       .  S
C3853      C3854   1.406       .  A
C3854      F3855   1.358       .  S
C3859      C3860   1.397       .  A
C3859      C3864   1.397       .  A
C3859      H3866   1.084       .  S
C3860      C3861   1.412       .  A
C3861      C3862   1.396       .  A
C3861      F3868   1.358       .  S
C3862      C3863   1.399       .  A
C3862      H3867   1.083       .  S
C3863      C3864   1.412       .  A
C3864      F3865   1.357       .  S
C3869      C3870   1.402       .  A
C3869      C3874   1.396       .  A
C3869      H3876   1.083       .  S
C3870      C3871   1.417       .  A
C3871      C3872   1.401       .  A
C3871      F3878   1.358       .  S
C3872      C3873   1.399       .  A
C3872      H3877   1.083       .  S
C3873      C3874   1.412       .  A
C3874      F3875   1.358       .  S
C3879      C3880   1.405       .  A
C3879      C3884   1.398       .  A
C3879      H3886   1.083       .  S
C3880      C3881   1.403       .  A
C3881      C3882   1.400       .  A
C3881      F3888   1.357       .  S
C3882      C3883   1.404       .  A
C3882      H3887   1.084       .  S
C3883      C3884   1.402       .  A
C3884      F3885   1.358       .  S
C3889      C3890   1.413       .  A
C3889      C3894   1.419       .  A
C3889      H3896   1.083       .  S
C3890      C3891   1.410       .  A
C3891      C3892   1.398       .  A
C3891      F3898   1.358       .  S
C3892      C3893   1.405       .  A
C3892      H3897   1.084       .  S
C3893      C3894   1.411       .  A
C3894      F3895   1.357       .  S
C3899      C3900   1.403       .  A
C3899      C3904   1.403       .  A
C3899      H3906   1.083   1_565  S
C3900      C3901   1.411       .  A
C3901      C3902   1.404       .  A
C3901      F3908   1.357       .  S
C3902      C3903   1.403       .  A
C3902      H3907   1.083       .  S
C3903      C3904   1.410       .  A
C3904      F3905   1.358   1_565  S
C3909      C3910   1.411       .  A
C3909      C3914   1.409       .  A
C3909      H3916   1.083       .  S
C3910      C3911   1.414       .  A
C3911      C3912   1.406       .  A
C3911      F3918   1.356       .  S
C3912      C3913   1.403       .  A
C3912      H3917   1.084       .  S
C3913      C3914   1.406       .  A
C3914      F3915   1.357       .  S
C3919      C3920   1.405       .  A
C3919      C3924   1.400       .  A
C3919      H3926   1.084   1_565  S
C3920      C3921   1.405       .  A
C3921      C3922   1.395       .  A
C3921      F3928   1.357       .  S
C3922      C3923   1.404       .  A
C3922      H3927   1.084       .  S
C3923      C3924   1.406       .  A
C3924      F3925   1.357   1_565  S
C3929      C3930   1.404       .  A
C3929      C3934   1.408       .  A
C3929      H3936   1.083       .  S
C3930      C3931   1.403       .  A
C3931      C3932   1.396       .  A
C3931      F3938   1.358       .  S
C3932      C3933   1.405       .  A
C3932      H3937   1.084       .  S
C3933      C3934   1.409       .  A
C3934      F3935   1.357       .  S
C3939      C3940   1.411       .  A
C3939      C3944   1.403       .  A
C3939      H3946   1.083       .  S
C3940      C3941   1.408   1_565  A
C3941      C3942   1.396       .  A
C3941      F3948   1.358       .  S
C3942      C3943   1.406   1_545  A
C3942      H3947   1.084       .  S
C3943      C3944   1.405       .  A
C3944      F3945   1.357       .  S
C3949      C3950   1.408       .  A
C3949      C3954   1.395       .  A
C3949      H3956   1.084       .  S
C3950      C3951   1.402       .  A
C3951      C3952   1.402   1_565  A
C3951      F3958   1.357   1_565  S
C3952      C3953   1.411   1_545  A
C3952      H3957   1.083       .  S
C3953      C3954   1.407       .  A
C3954      F3955   1.358       .  S
C3959      C3960   1.411       .  A
C3959      C3964   1.388       .  A
C3959      H3966   1.083       .  S
C3960      C3961   1.404       .  A
C3961      C3962   1.395       .  A
C3961      F3968   1.358       .  S
C3962      C3963   1.405       .  A
C3962      H3967   1.084       .  S
C3963      C3964   1.392       .  A
C3964      F3965   1.357       .  S
C3969      C3970   1.391       .  A
C3969      C3974   1.389       .  A
C3969      H3976   1.083       .  S
C3970      C3971   1.412       .  A
C3971      C3972   1.394       .  A
C3971      F3978   1.359       .  S
C3972      C3973   1.399       .  A
C3972      H3977   1.083       .  S
C3973      C3974   1.415       .  A
C3974      F3975   1.358       .  S
C3979      C3980   1.403       .  A
C3979      C3984   1.398       .  A
C3979      H3986   1.084       .  S
C3980      C3981   1.409       .  A
C3981      C3982   1.413       .  A
C3981      F3988   1.357       .  S
C3982      C3983   1.411       .  A
C3982      H3987   1.083       .  S
C3983      C3984   1.411       .  A
C3984      F3985   1.358       .  S
C3989      C3990   1.409       .  A
C3989      C3994   1.405       .  A
C3989      H3996   1.083       .  S
C3990      C3991   1.410       .  A
C3991      C3992   1.402       .  A
C3991      F3998   1.357       .  S
C3992      C3993   1.404       .  A
C3992      H3997   1.082       .  S
C3993      C3994   1.408       .  A
C3994      F3995   1.358       .  S
C3999      C4000   1.408       .  A
C3999      C4004   1.411       .  A
C3999      H4006   1.083       .  S
C4000      C4001   1.412       .  A
C4001      C4002   1.407       .  A
C4001      F4008   1.358       .  S
C4002      C4003   1.406       .  A
C4002      H4007   1.084       .  S
C4003      C4004   1.410       .  A
C4004      F4005   1.357       .  S
C4009      C4010   1.403       .  A
C4009      C4014   1.400       .  A
C4009      H4016   1.084       .  S
C4010      C4011   1.404       .  A
C4011      C4012   1.401       .  A
C4011      F4018   1.357       .  S
C4012      C4013   1.404       .  A
C4012      H4017   1.084       .  S
C4013      C4014   1.406       .  A
C4014      F4015   1.356       .  S
C4019      C4020   1.405       .  A
C4019      C4024   1.395       .  A
C4019      H4026   1.084       .  S
C4020      C4021   1.405       .  A
C4021      C4022   1.396       .  A
C4021      F4028   1.358       .  S
C4022      C4023   1.407       .  A
C4022      H4027   1.084       .  S
C4023      C4024   1.403       .  A
C4024      F4025   1.357       .  S
C4029      C4030   1.401       .  A
C4029      C4034   1.396       .  A
C4029      H4036   1.083       .  S
C4030      C4031   1.407       .  A
C4031      C4032   1.394       .  A
C4031      F4038   1.358       .  S
C4032      C4033   1.403       .  A
C4032      H4037   1.083       .  S
C4033      C4034   1.411       .  A
C4034      F4035   1.357       .  S
C4039      C4040   1.411       .  A
C4039      C4044   1.390       .  A
C4039      H4046   1.083       .  S
C4040      C4041   1.410       .  A
C4041      C4042   1.415       .  A
C4041      F4048   1.357       .  S
C4042      C4043   1.413       .  A
C4042      H4047   1.083       .  S
C4043      C4044   1.402       .  A
C4044      F4045   1.358       .  S
C4049      C4050   1.409       .  A
C4049      C4054   1.401       .  A
C4049      H4056   1.083       .  S
C4050      C4051   1.411       .  A
C4051      C4052   1.406       .  A
C4051      F4058   1.357       .  S
C4052      C4053   1.406       .  A
C4052      H4057   1.083       .  S
C4053      C4054   1.404       .  A
C4054      F4055   1.357       .  S
C4059      C4060   1.420       .  A
C4059      C4064   1.419       .  A
C4059      H4066   1.083       .  S
C4060      C4061   1.404       .  A
C4061      C4062   1.396       .  A
C4061      F4068   1.357       .  S
C4062      C4063   1.415       .  A
C4062      H4067   1.083       .  S
C4063      C4064   1.409       .  A
C4064      F4065   1.357       .  S
C4069      C4070   1.404       .  A
C4069      C4074   1.404       .  A
C4069      H4076   1.083   1_545  S
C4070      C4071   1.410       .  A
C4071      C4072   1.410       .  A
C4071      F4078   1.357       .  S
C4072      C4073   1.408       .  A
C4072      H4077   1.083       .  S
C4073      C4074   1.410       .  A
C4074      F4075   1.357   1_545  S
C4079      C4080   1.407       .  A
C4079      C4084   1.407       .  A
C4079      H4086   1.083       .  S
C4080      C4081   1.408       .  A
C4081      C4082   1.412       .  A
C4081      F4088   1.357       .  S
C4082      C4083   1.412       .  A
C4082      H4087   1.083       .  S
C4083      C4084   1.410       .  A
C4084      F4085   1.357       .  S
C4089      C4090   1.412       .  A
C4089      C4094   1.413       .  A
C4089      H4096   1.083       .  S
C4090      C4091   1.405       .  A
C4091      C4092   1.406       .  A
C4091      F4098   1.357   1_545  S
C4092      C4093   1.413       .  A
C4092      H4097   1.083   1_545  S
C4093      C4094   1.408       .  A
C4094      F4095   1.356       .  S
C4099      C4100   1.401       .  A
C4099      C4104   1.391       .  A
C4099      H4106   1.084       .  S
C4100      C4101   1.411   1_565  A
C4101      C4102   1.393       .  A
C4101      F4108   1.358       .  S
C4102      C4103   1.402       .  A
C4102      H4107   1.083       .  S
C4103      C4104   1.413   1_545  A
C4104      F4105   1.358       .  S
C4109      C4110   1.404       .  A
C4109      C4114   1.407       .  A
C4109      H4116   1.083       .  S
C4110      C4111   1.405   1_545  A
C4111      C4112   1.402       .  A
C4111      F4118   1.358       .  S
C4112      C4113   1.409   1_565  A
C4112      H4117   1.084       .  S
C4113      C4114   1.410       .  A
C4114      F4115   1.357       .  S
C4119      C4120   1.403       .  A
C4119      C4124   1.399       .  A
C4119      H4126   1.084       .  S
C4120      C4121   1.403       .  A
C4121      C4122   1.398       .  A
C4121      F4128   1.358       .  S
C4122      C4123   1.408       .  A
C4122      H4127   1.083       .  S
C4123      C4124   1.407       .  A
C4124      F4125   1.357       .  S
C4129      C4130   1.411       .  A
C4129      C4134   1.410       .  A
C4129      H4136   1.083       .  S
C4130      C4131   1.405       .  A
C4131      C4132   1.403       .  A
C4131      F4138   1.358       .  S
C4132      C4133   1.411       .  A
C4132      H4137   1.083       .  S
C4133      C4134   1.408       .  A
C4134      F4135   1.357       .  S
C4139      C4140   1.403       .  A
C4139      C4144   1.391       .  A
C4139      H4146   1.084       .  S
C4140      C4141   1.408       .  A
C4141      C4142   1.396       .  A
C4141      F4148   1.357       .  S
C4142      C4143   1.404       .  A
C4142      H4147   1.083       .  S
C4143      C4144   1.409       .  A
C4144      F4145   1.358       .  S
C4149      C4150   1.404       .  A
C4149      C4154   1.392       .  A
C4149      H4156   1.083       .  S
C4150      C4151   1.411       .  A
C4151      C4152   1.391       .  A
C4151      F4158   1.358       .  S
C4152      C4153   1.402       .  A
C4152      H4157   1.084       .  S
C4153      C4154   1.410       .  A
C4154      F4155   1.358       .  S
C4159      C4160   1.410       .  A
C4159      C4164   1.408       .  A
C4159      H4166   1.082       .  S
C4160      C4161   1.406       .  A
C4161      C4162   1.406       .  A
C4161      F4168   1.357       .  S
C4162      C4163   1.409       .  A
C4162      H4167   1.083       .  S
C4163      C4164   1.405       .  A
C4164      F4165   1.357       .  S
C4169      C4170   1.401       .  A
C4169      C4174   1.404       .  A
C4169      H4176   1.083       .  S
C4170      C4171   1.416       .  A
C4171      C4172   1.406       .  A
C4171      F4178   1.357       .  S
C4172      C4173   1.403       .  A
C4172      H4177   1.083       .  S
C4173      C4174   1.417       .  A
C4174      F4175   1.358       .  S
C4179      C4180   1.406       .  A
C4179      C4184   1.406       .  A
C4179      H4186   1.083       .  S
C4180      C4181   1.411       .  A
C4181      C4182   1.406       .  A
C4181      F4188   1.357       .  S
C4182      C4183   1.404       .  A
C4182      H4187   1.083       .  S
C4183      C4184   1.409       .  A
C4184      F4185   1.358       .  S
C4189      C4190   1.399       .  A
C4189      C4194   1.394       .  A
C4189      H4196   1.082       .  S
C4190      C4191   1.399       .  A
C4191      C4192   1.394       .  A
C4191      F4198   1.355       .  S
C4192      C4193   1.406       .  A
C4192      H4197   1.083       .  S
C4193      C4194   1.409       .  A
C4194      F4195   1.358       .  S
C4199      C4200   1.402       .  A
C4199      C4204   1.395       .  A
C4199      H4206   1.084       .  S
C4200      C4201   1.405       .  A
C4201      C4202   1.404       .  A
C4201      F4208   1.356       .  S
C4202      C4203   1.405       .  A
C4202      H4207   1.083       .  S
C4203      C4204   1.405       .  A
C4204      F4205   1.358       .  S
C4209      C4210   1.401       .  A
C4209      C4214   1.392       .  A
C4209      H4216   1.084       .  S
C4210      C4211   1.402       .  A
C4211      C4212   1.399       .  A
C4211      F4218   1.357       .  S
C4212      C4213   1.411       .  A
C4212      H4217   1.083       .  S
C4213      C4214   1.410       .  A
C4214      F4215   1.356       .  S
C4219      C4220   1.410       .  A
C4219      C4224   1.400       .  A
C4219      H4226   1.083       .  S
C4220      C4221   1.404       .  A
C4221      C4222   1.394       .  A
C4221      F4228   1.358       .  S
C4222      C4223   1.409       .  A
C4222      H4227   1.084       .  S
C4223      C4224   1.402       .  A
C4224      F4225   1.356       .  S
C4229      C4230   1.405       .  A
C4229      C4234   1.403       .  A
C4229      H4236   1.083       .  S
C4230      C4231   1.405       .  A
C4231      C4232   1.398       .  A
C4231      F4238   1.358       .  S
C4232      C4233   1.409       .  A
C4232      H4237   1.083       .  S
C4233      C4234   1.409       .  A
C4234      F4235   1.357       .  S
C4239      C4240   1.405       .  A
C4239      C4244   1.405       .  A
C4239      H4246   1.083       .  S
C4240      C4241   1.406       .  A
C4241      C4242   1.393       .  A
C4241      F4248   1.358       .  S
C4242      C4243   1.401       .  A
C4242      H4247   1.084       .  S
C4243      C4244   1.408       .  A
C4244      F4245   1.357       .  S
C4249      C4250   1.409       .  A
C4249      C4254   1.420       .  A
C4249      H4256   1.083       .  S
C4250      C4251   1.408       .  A
C4251      C4252   1.397       .  A
C4251      F4258   1.358       .  S
C4252      C4253   1.407       .  A
C4252      H4257   1.083       .  S
C4253      C4254   1.420       .  A
C4254      F4255   1.357       .  S
C4259      C4260   1.405       .  A
C4259      C4264   1.402       .  A
C4259      H4266   1.083       .  S
C4260      C4261   1.414       .  A
C4261      C4262   1.404       .  A
C4261      F4268   1.358   1_556  S
C4262      C4263   1.406       .  A
C4262      H4267   1.083   1_556  S
C4263      C4264   1.413       .  A
C4264      F4265   1.357       .  S
C4269      C4270   1.405       .  A
C4269      C4274   1.404       .  A
C4269      H4276   1.084       .  S
C4270      C4271   1.410   1_556  A
C4271      C4272   1.407       .  A
C4271      F4278   1.358       .  S
C4272      C4273   1.406   1_554  A
C4272      H4277   1.083       .  S
C4273      C4274   1.410       .  A
C4274      F4275   1.357       .  S
C4279      C4280   1.404       .  A
C4279      C4284   1.401       .  A
C4279      H4286   1.084       .  S
C4280      C4281   1.409       .  A
C4281      C4282   1.396       .  A
C4281      F4288   1.356       .  S
C4282      C4283   1.401       .  A
C4282      H4287   1.084       .  S
C4283      C4284   1.407       .  A
C4284      F4285   1.357       .  S
C4289      C4290   1.408       .  A
C4289      C4294   1.402       .  A
C4289      H4296   1.083       .  S
C4290      C4291   1.407       .  A
C4291      C4292   1.402       .  A
C4291      F4298   1.354       .  S
C4292      C4293   1.402       .  A
C4292      H4297   1.083       .  S
C4293      C4294   1.404       .  A
C4294      F4295   1.358       .  S
C4299      C4300   1.406       .  A
C4299      C4304   1.409       .  A
C4299      H4306   1.083       .  S
C4300      C4301   1.406       .  A
C4301      C4302   1.395       .  A
C4301      F4308   1.358       .  S
C4302      C4303   1.402       .  A
C4302      H4307   1.084       .  S
C4303      C4304   1.409       .  A
C4304      F4305   1.357       .  S
C4309      C4310   1.411       .  A
C4309      C4314   1.404       .  A
C4309      H4316   1.084       .  S
C4310      C4311   1.401       .  A
C4311      C4312   1.407       .  A
C4311      F4318   1.357       .  S
C4312      C4313   1.415       .  A
C4312      H4317   1.083       .  S
C4313      C4314   1.404       .  A
C4314      F4315   1.357       .  S
C4319      C4320   1.403       .  A
C4319      C4324   1.390       .  A
C4319      H4326   1.084       .  S
C4320      C4321   1.411       .  A
C4321      C4322   1.394       .  A
C4321      F4328   1.358       .  S
C4322      C4323   1.402       .  A
C4322      H4327   1.083       .  S
C4323      C4324   1.407       .  A
C4324      F4325   1.358       .  S
C4329      C4330   1.400       .  A
C4329      C4334   1.398       .  A
C4329      H4336   1.081       .  S
C4330      C4331   1.405       .  A
C4331      C4332   1.402       .  A
C4331      F4338   1.357       .  S
C4332      C4333   1.405       .  A
C4332      H4337   1.084       .  S
C4333      C4334   1.409       .  A
C4334      F4335   1.358       .  S
C4339      C4340   1.408       .  A
C4339      C4344   1.412       .  A
C4339      H4346   1.083       .  S
C4340      C4341   1.415       .  A
C4341      C4342   1.406       .  A
C4341      F4348   1.358       .  S
C4342      C4343   1.403       .  A
C4342      H4347   1.083       .  S
C4343      C4344   1.412       .  A
C4344      F4345   1.357       .  S
C4349      C4350   1.410       .  A
C4349      C4354   1.407       .  A
C4349      H4356   1.083       .  S
C4350      C4351   1.405       .  A
C4351      C4352   1.399       .  A
C4351      F4358   1.356       .  S
C4352      C4353   1.411       .  A
C4352      H4357   1.083       .  S
C4353      C4354   1.410       .  A
C4354      F4355   1.357       .  S
C4359      C4360   1.406       .  A
C4359      C4364   1.408       .  A
C4359      H4366   1.083       .  S
C4360      C4361   1.413       .  A
C4361      C4362   1.410       .  A
C4361      F4368   1.358       .  S
C4362      C4363   1.405       .  A
C4362      H4367   1.083       .  S
C4363      C4364   1.410       .  A
C4364      F4365   1.357       .  S
C4369      C4370   1.400       .  A
C4369      C4374   1.390       .  A
C4369      H4376   1.078       .  S
C4370      C4371   1.406       .  A
C4371      C4372   1.397       .  A
C4371      F4378   1.357       .  S
C4372      C4373   1.403       .  A
C4372      H4377   1.084       .  S
C4373      C4374   1.407       .  A
C4374      F4375   1.358       .  S
C4379      C4380   1.396       .  A
C4379      C4384   1.391       .  A
C4379      H4386   1.084       .  S
C4380      C4381   1.406       .  A
C4381      C4382   1.391       .  A
C4381      F4388   1.358       .  S
C4382      C4383   1.402       .  A
C4382      H4387   1.083       .  S
C4383      C4384   1.410       .  A
C4384      F4385   1.354       .  S
C4389      C4390   1.408       .  A
C4389      C4394   1.397       .  A
C4389      H4396   1.084       .  S
C4390      C4391   1.407       .  A
C4391      C4392   1.398       .  A
C4391      F4398   1.357       .  S
C4392      C4393   1.407       .  A
C4392      H4397   1.084       .  S
C4393      C4394   1.404       .  A
C4394      F4395   1.357       .  S
C4399      C4400   1.405       .  A
C4399      C4404   1.398       .  A
C4399      H4406   1.083       .  S
C4400      C4401   1.420       .  A
C4401      C4402   1.416       .  A
C4401      F4408   1.356       .  S
C4402      C4403   1.404       .  A
C4402      H4407   1.083       .  S
C4403      C4404   1.414       .  A
C4404      F4405   1.359       .  S
C4409      C4410   1.418       .  A
C4409      C4414   1.409       .  A
C4409      H4416   1.083   1_556  S
C4410      C4411   1.405       .  A
C4411      C4412   1.397       .  A
C4411      F4418   1.357       .  S
C4412      C4413   1.409       .  A
C4412      H4417   1.083       .  S
C4413      C4414   1.402       .  A
C4414      F4415   1.357   1_556  S
C4419      C4420   1.405       .  A
C4419      C4424   1.404   1_556  A
C4419      H4426   1.083   1_556  S
C4420      C4421   1.409       .  A
C4421      C4422   1.404       .  A
C4421      F4428   1.347       .  S
C4422      C4423   1.403       .  A
C4422      H4427   1.083       .  S
C4423      C4424   1.414   1_556  A
C4424      F4425   1.357       .  S
C4429      C4430   1.402       .  A
C4429      C4434   1.393       .  A
C4429      H4436   1.084       .  S
C4430      C4431   1.404       .  A
C4431      C4432   1.396       .  A
C4431      F4438   1.355       .  S
C4432      C4433   1.400       .  A
C4432      H4437   1.083       .  S
C4433      C4434   1.406       .  A
C4434      F4435   1.358       .  S
C4439      C4440   1.405       .  A
C4439      C4444   1.398       .  A
C4439      H4446   1.082       .  S
C4440      C4441   1.402       .  A
C4441      C4442   1.397       .  A
C4441      F4448   1.358   1_556  S
C4442      C4443   1.404       .  A
C4442      H4447   1.084       .  S
C4443      C4444   1.400       .  A
C4444      F4445   1.357       .  S
C4449      C4450   1.404       .  A
C4449      C4454   1.398       .  A
C4449      H4456   1.084       .  S
C4450      C4451   1.406       .  A
C4451      C4452   1.402       .  A
C4451      F4458   1.357   1_556  S
C4452      C4453   1.404       .  A
C4452      H4457   1.083   1_556  S
C4453      C4454   1.405       .  A
C4454      F4455   1.358       .  S
C4459      C4460   1.400       .  A
C4459      C4464   1.393       .  A
C4459      H4466   1.084       .  S
C4460      C4461   1.405       .  A
C4461      C4462   1.403       .  A
C4461      F4468   1.357       .  S
C4462      C4463   1.406       .  A
C4462      H4467   1.083       .  S
C4463      C4464   1.404       .  A
C4464      F4465   1.356       .  S
C4469      C4470   1.410       .  A
C4469      C4474   1.412       .  A
C4469      H4476   1.082       .  S
C4470      C4471   1.410       .  A
C4471      C4472   1.413       .  A
C4471      F4478   1.357       .  S
C4472      C4473   1.411       .  A
C4472      H4477   1.083       .  S
C4473      C4474   1.410       .  A
C4474      F4475   1.357       .  S
C4479      C4480   1.407       .  A
C4479      C4484   1.406   1_655  A
C4479      H4486   1.084       .  S
C4480      C4481   1.410       .  A
C4481      C4482   1.407   1_655  A
C4481      F4488   1.358       .  S
C4482      C4483   1.405       .  A
C4482      H4487   1.083       .  S
C4483      C4484   1.407       .  A
C4484      F4485   1.357       .  S
C4489      C4490   1.404       .  A
C4489      C4494   1.411       .  A
C4489      H4496   1.083       .  S
C4490      C4491   1.408       .  A
C4491      C4492   1.392       .  A
C4491      F4498   1.359       .  S
C4492      C4493   1.404       .  A
C4492      H4497   1.083       .  S
C4493      C4494   1.417       .  A
C4494      F4495   1.357   1_655  S
C4499      C4500   1.401       .  A
C4499      C4504   1.400       .  A
C4499      H4506   1.083       .  S
C4500      C4501   1.399       .  A
C4501      C4502   1.389       .  A
C4501      F4508   1.359       .  S
C4502      C4503   1.409       .  A
C4502      H4507   1.083       .  S
C4503      C4504   1.411       .  A
C4504      F4505   1.357       .  S
C4509      C4510   1.398       .  A
C4509      C4514   1.389       .  A
C4509      H4516   1.084   1_565  S
C4510      C4511   1.413       .  A
C4511      C4512   1.391       .  A
C4511      F4518   1.358       .  S
C4512      C4513   1.399       .  A
C4512      H4517   1.083       .  S
C4513      C4514   1.417       .  A
C4514      F4515   1.359       .  S
C4519      C4520   1.408       .  A
C4519      C4524   1.405       .  A
C4519      H4526   1.082       .  S
C4520      C4521   1.405       .  A
C4521      C4522   1.399       .  A
C4521      F4528   1.358   1_565  S
C4522      C4523   1.403       .  A
C4522      H4527   1.084   1_565  S
C4523      C4524   1.403       .  A
C4524      F4525   1.357       .  S
C4529      C4530   1.405       .  A
C4529      C4534   1.412       .  A
C4529      H4536   1.082       .  S
C4530      C4531   1.412       .  A
C4531      C4532   1.404       .  A
C4531      F4538   1.358       .  S
C4532      C4533   1.406       .  A
C4532      H4537   1.083       .  S
C4533      C4534   1.417       .  A
C4534      F4535   1.357       .  S
C4539      C4540   1.406       .  A
C4539      C4544   1.410       .  A
C4539      H4546   1.083       .  S
C4540      C4541   1.417       .  A
C4541      C4542   1.412       .  A
C4541      F4548   1.358       .  S
C4542      C4543   1.408       .  A
C4542      H4547   1.083       .  S
C4543      C4544   1.414       .  A
C4544      F4545   1.356       .  S
C4549      C4550   1.403       .  A
C4549      C4554   1.393       .  A
C4549      H4556   1.083       .  S
C4550      C4551   1.407       .  A
C4551      C4552   1.392       .  A
C4551      F4558   1.358       .  S
C4552      C4553   1.404       .  A
C4552      H4557   1.084       .  S
C4553      C4554   1.408       .  A
C4554      F4555   1.357       .  S
C4559      C4560   1.413       .  A
C4559      C4564   1.400       .  A
C4559      H4566   1.083       .  S
C4560      C4561   1.409       .  A
C4561      C4562   1.391       .  A
C4561      F4568   1.357       .  S
C4562      C4563   1.400       .  A
C4562      H4567   1.084       .  S
C4563      C4564   1.398       .  A
C4564      F4565   1.357       .  S
C4569      C4570   1.407       .  A
C4569      C4574   1.390       .  A
C4569      H4576   1.083       .  S
C4570      C4571   1.408       .  A
C4571      C4572   1.394       .  A
C4571      F4578   1.358       .  S
C4572      C4573   1.407       .  A
C4572      H4577   1.084       .  S
C4573      C4574   1.403       .  A
C4574      F4575   1.358       .  S
C4579      C4580   1.406       .  A
C4579      C4584   1.398       .  A
C4579      H4586   1.084       .  S
C4580      C4581   1.409       .  A
C4581      C4582   1.406       .  A
C4581      F4588   1.357       .  S
C4582      C4583   1.403       .  A
C4582      H4587   1.083       .  S
C4583      C4584   1.402       .  A
C4584      F4585   1.358       .  S
C4589      C4590   1.406       .  A
C4589      C4594   1.406       .  A
C4589      H4596   1.083       .  S
C4590      C4591   1.408       .  A
C4591      C4592   1.406       .  A
C4591      F4598   1.357       .  S
C4592      C4593   1.407       .  A
C4592      H4597   1.083       .  S
C4593      C4594   1.409       .  A
C4594      F4595   1.357       .  S
C4599      C4600   1.404       .  A
C4599      C4604   1.402       .  A
C4599      H4606   1.081       .  S
C4600      C4601   1.405       .  A
C4601      C4602   1.399       .  A
C4601      F4608   1.357       .  S
C4602      C4603   1.405       .  A
C4602      H4607   1.083       .  S
C4603      C4604   1.407       .  A
C4604      F4605   1.358       .  S
