geometry optimzed in LAMMPS
_audit_creation_date              2020-12-01 
_audit_creation_method            'lammps2cif' 
_symmetry_space_group_name_H-M    'P1' 
_symmetry_Int_Tables_number       1 
_symmetry_cell_setting            triclinic 
loop_ 
_symmetry_equiv_pos_as_xyz 
  x,y,z 
_cell_length_a                    27.14189762 
_cell_length_b                    27.001369614405 
_cell_length_c                    44.245910719009764 
_cell_angle_alpha                 89.91551447101106 
_cell_angle_beta                  90.18599666329085 
_cell_angle_gamma                 119.45847641687696 
loop_ 
_atom_site_label 
_atom_site_type_symbol 
_atom_site_fract_x 
_atom_site_fract_y 
_atom_site_fract_z 
_atom_site_charge 
C1          C  0.33160720  0.16647047  0.59081548     0.49600
H2          H  0.32942895  0.16561423  0.61592852     0.00000
C3          C  0.33691704  0.16846847  0.53216195     0.49100
H4          H  0.33917035  0.16928417  0.50703377     0.00000
C5          C  0.39169630  0.20123008  0.57860586    -0.13700
C6          C  0.30826469  0.10766981  0.57659327    -0.13500
C7          C  0.29801355  0.19161448  0.57586602    -0.13800
C8          C  0.39420587  0.20255019  0.54759468    -0.13800
C9          C  0.31167224  0.10900830  0.54564652    -0.13400
C10         C  0.30080643  0.19236897  0.54484712    -0.13700
C11         C  0.16810149  0.33519214  0.46341378     0.49000
H12         H  0.16984589  0.33472355  0.48854627     0.00000
C13         C  0.16353703  0.33609627  0.40466176     0.49100
H14         H  0.16152440  0.33649663  0.37957720     0.00000
C15         C  0.19279419  0.30182379  0.44824002    -0.13700
C16         C  0.10806187  0.30988462  0.45084262    -0.13500
C17         C  0.20025671  0.39464594  0.44980134    -0.13800
C18         C  0.19110296  0.30187770  0.41729183    -0.13800
C19         C  0.10514896  0.31018247  0.41988213    -0.13400
C20         C  0.19750384  0.39586897  0.41884511    -0.13700
Zn21       Zn  0.08446972  0.28178702  0.67660113     1.49700
Zn22       Zn  0.16057189  0.32972046  0.61806158     1.49400
Zn23       Zn  0.20124416  0.40494312  0.67766997     1.49100
Zn24       Zn  0.20391780  0.28804574  0.67329852     1.49500
O25         O  0.16231777  0.32660120  0.66196835    -1.80600
O26         O  0.02814475  0.25305803  0.64169761    -0.71200
O27         O  0.18739593  0.40736250  0.60243302    -0.71000
O28         O  0.14499056  0.41730046  0.70302128    -0.70500
O29         O  0.08407342  0.28131608  0.60142462    -0.71200
O30         O  0.06674308  0.33209724  0.70267308    -0.70800
O31         O  0.22623204  0.46155513  0.64287157    -0.71400
O32         O  0.27879047  0.34313092  0.69162231    -0.70800
O33         O  0.20885178  0.30304191  0.59894444    -0.71600
O34         O  0.27463866  0.42209917  0.70050721    -0.70900
O35         O  0.22337144  0.25753920  0.63674742    -0.71400
O36         O  0.16006193  0.22360004  0.70262129    -0.71300
O37         O  0.07360421  0.21340081  0.70160149    -0.71100
C38         C  0.03535419  0.25527342  0.61315181     0.80700
C39         C  0.21577518  0.45582830  0.61457356     0.81200
C40         C  0.09345445  0.38422962  0.71054086     0.80100
C41         C  0.30088914  0.39363254  0.70174199     0.80500
C42         C  0.22736708  0.27137585  0.60897428     0.81600
C43         C  0.10834621  0.19748047  0.71062854     0.80700
C44         C  0.99031290  0.99270147  0.73959345     0.49000
H45         H  0.98561297  0.98942028  0.71462827     0.00000
C46         C  0.00297765  0.00070177  0.79802863     0.49100
H47         H  0.00792106  0.00366405  0.82304914     0.00000
C48         C  0.43591724  0.47973391  0.74927534    -0.13700
C49         C  0.03430507  0.47634866  0.74348670    -0.13500
C50         C  0.01892707  0.05464745  0.75161655    -0.13800
C51         C  0.44206275  0.48217748  0.78001033    -0.13800
C52         C  0.03197654  0.47318688  0.77446169    -0.13400
C53         C  0.02544137  0.05825401  0.78249908    -0.13700
C54         C  0.17301570  0.33801941  0.86438124     0.49000
H55         H  0.17544058  0.33639933  0.83931300     0.00000
C56         C  0.16705547  0.34252478  0.92275775     0.49100
H57         H  0.16488154  0.34418407  0.94771991     0.00000
C58         C  0.14266649  0.36954936  0.87487473    -0.13700
C59         C  0.14098498  0.27928297  0.87904669    -0.13500
C60         C  0.23085312  0.36841323  0.87979957    -0.13800
C61         C  0.13822298  0.37226901  0.90557338    -0.13800
C62         C  0.13770344  0.28079796  0.91020014    -0.13400
C63         C  0.22917769  0.37050395  0.91089180    -0.13700
C64         C  0.33151570  0.16833412  0.06970020     0.49000
H65         H  0.33296844  0.17020422  0.04459540     0.00000
C66         C  0.32855198  0.16439390  0.12850315     0.49100
H67         H  0.32706713  0.16252978  0.15363232     0.00000
C68         C  0.27162562  0.13282468  0.08239545    -0.13700
C69         C  0.36602377  0.14278152  0.08366705    -0.13500
C70         C  0.35481789  0.22669192  0.08491121    -0.13800
C71         C  0.27055211  0.13138330  0.11330761    -0.13800
C72         C  0.36376427  0.14035267  0.11467497    -0.13400
C73         C  0.35422364  0.22460668  0.11589997    -0.13700
C74         C  0.99598231  0.49138852  0.19856690     0.49000
H75         H  0.50160647  0.49885670  0.17739078     0.00000
C76         C  0.00685320  0.50015458  0.25698048     0.49100
H77         H  0.00741555  0.01537605  0.28164409     0.00000
C78         C  0.47253369  0.03267958  0.21353139    -0.13700
C79         C  0.46861533  0.43851033  0.21590740    -0.13500
C80         C  0.05814478  0.02802380  0.21025191    -0.13800
C81         C  0.47157632  0.03328078  0.24458595    -0.13800
C82         C  0.46668574  0.43749755  0.24702937    -0.13400
C83         C  0.06320016  0.03489828  0.24094598    -0.13700
Zn84       Zn  0.25900756  0.12822618  0.35544105     1.49700
Zn85       Zn  0.37625436  0.24516299  0.34561364     1.49400
Zn86       Zn  0.37629785  0.12835021  0.34287274     1.49100
Zn87       Zn  0.31505000  0.15772000  0.28962406     1.49500
O88         O  0.33131061  0.16494690  0.33334396    -1.80600
O89         O  0.24928486  0.18720092  0.37993299    -0.71200
O90         O  0.45038516  0.26307479  0.36668987    -0.71000
O91         O  0.33438474  0.06288246  0.37133889    -0.70500
O92         O  0.33098426  0.26726011  0.37324038    -0.71200
O93         O  0.25298112  0.06159422  0.38044266    -0.70800
O94         O  0.45158851  0.18196576  0.36126980    -0.71400
O95         O  0.35041440  0.11560167  0.26836696    -0.70800
O96         O  0.39570779  0.29510228  0.30858422    -0.71600
O97         O  0.39465086  0.09854874  0.30581213    -0.70900
O98         O  0.34903546  0.23595197  0.27075036    -0.71400
O99         O  0.23011822  0.11600427  0.28145265    -0.71300
O100        O  0.19206800  0.09424873  0.32722974    -0.71100
C101        C  0.28127606  0.24050581  0.38420398     0.80700
C102        C  0.47486766  0.23339950  0.36990175     0.81200
C103        C  0.28601039  0.04081047  0.38381126     0.80100
C104        C  0.38191361  0.09615027  0.27798289     0.80500
C105        C  0.38108448  0.28597202  0.28083345     0.81600
C106        C  0.18686107  0.09322122  0.29866600     0.80700
Zn107      Zn  0.42136948  0.45127266  0.01314134     1.49700
Zn108      Zn  0.02975150  0.08017770  0.00941569     1.49400
Zn109      Zn  0.04397638  0.46980501  0.02146999     1.49100
Zn110      Zn  0.48552057  0.99594952  0.95390287     1.49500
O111        O  0.49784510  0.00163751  0.99762723    -1.80600
O112        O  0.41190740  0.00416407  0.04799619    -0.71200
O113        O  0.09623958  0.10089350  0.03780663    -0.71000
O114        O  0.49957334  0.40540974  0.04884961    -0.70500
O115        O  0.47155622  0.09266189  0.03330961    -0.71200
O116        O  0.41137237  0.38284235  0.03633361    -0.70800
O117        O  0.11461535  0.02922547  0.03360069    -0.71400
O118        O  0.03375166  0.44108423  0.94647720    -0.70800
O119        O  0.05983747  0.13643067  0.97383505    -0.71600
O120        O  0.07000675  0.43413015  0.99047927    -0.70900
O121        O  0.04429366  0.07845012  0.93500224    -0.71400
O122        O  0.43293805  0.46267572  0.93808227    -0.71300
O123        O  0.37088126  0.42752489  0.97584659    -0.71100
C124        C  0.42964592  0.05724547  0.04907238     0.80700
C125        C  0.12655984  0.07804319  0.04391994     0.81200
C126        C  0.44644115  0.37307664  0.05078887     0.80100
C127        C  0.06355139  0.42527511  0.96218532     0.80500
C128        C  0.06435060  0.12841062  0.94577591     0.81600
C129        C  0.38171576  0.43552137  0.94767447     0.80700
C130        C  0.12002354  0.06366262  0.25580846    -0.12900
C131        C  0.12892691  0.06472069  0.28568853    -0.28100
H132        H  0.15675007  0.08438340  0.24119326     0.16100
H133        H  0.09354331  0.04407490  0.30110662     0.16700
C134        C  0.44272145  0.38668838  0.26716047    -0.12900
C135        C  0.40169019  0.33421087  0.25950208    -0.28100
H136        H  0.45942770  0.39394413  0.29005059     0.16100
H137        H  0.38213158  0.32570120  0.23739713     0.16700
C138        C  0.40454077  0.07055059  0.25637144    -0.12900
C139        C  0.44664692  0.06007355  0.26427067    -0.28100
H140        H  0.38566133  0.06002364  0.23409180     0.16100
H141        H  0.46284101  0.06936413  0.28725565     0.16700
C142        C  0.37401809  0.27852379  0.06680859    -0.12900
C143        C  0.42573432  0.32309608  0.07038221    -0.28100
H144        H  0.34705430  0.27757939  0.04836078     0.16100
H145        H  0.45457290  0.32144697  0.08694071     0.16700
C146        C  0.17629076  0.10903685  0.06391362    -0.12900
C147        C  0.22148981  0.10128731  0.06254310    -0.28100
H148        H  0.17674585  0.14049338  0.07937989     0.16100
H149        H  0.22364508  0.07398953  0.04520634     0.16700
C150        C  0.39992203  0.12587829  0.06463908    -0.12900
C151        C  0.39977174  0.07681024  0.06914574    -0.28100
H152        H  0.42129719  0.15195938  0.04509210     0.16100
H153        H  0.37336573  0.04794788  0.08675534     0.16700
C154        C  0.39280692  0.11972512  0.13386931    -0.15000
C155        C  0.41336499  0.10212276  0.15216413     0.09100
C156        C  0.43447120  0.08042747  0.17465063     0.11000
C157        C  0.45146143  0.06010850  0.19344547    -0.15800
C158        C  0.22056820  0.10134168  0.13108140    -0.15000
C159        C  0.18233193  0.08044608  0.14868405     0.09100
C160        C  0.14043293  0.06050349  0.17086746     0.11000
C161        C  0.10434911  0.04561186  0.18967812    -0.15800
C162        C  0.37768244  0.27330198  0.13585551    -0.15000
C163        C  0.39864710  0.31072567  0.15444827     0.09100
C164        C  0.42354956  0.35294529  0.17705146     0.11000
C165        C  0.44434123  0.38997110  0.19587808    -0.15800
C166        C  0.27935767  0.39557504  0.93241971    -0.12900
C167        C  0.33414545  0.41225056  0.92527829    -0.28100
H168        H  0.26976395  0.39896705  0.95587732     0.16100
H169        H  0.34595062  0.40884090  0.90248196     0.16700
C170        C  0.09407063  0.17701938  0.92464623    -0.12900
C171        C  0.10752853  0.23100673  0.93122229    -0.28100
H172        H  0.10553845  0.16698698  0.90307327     0.16100
H173        H  0.09750060  0.24004479  0.95357322     0.16700
C174        C  0.09228005  0.39567658  0.94856494    -0.12900
C175        C  0.10687967  0.39985622  0.91932106    -0.28100
H176        H  0.10442266  0.37217075  0.96390243     0.16100
H177        H  0.09494518  0.42450935  0.90463739     0.16700
C178        C  0.11979812  0.39265930  0.85303602    -0.15000
C179        C  0.10147947  0.41091070  0.83382768     0.09100
C180        C  0.07970243  0.43197303  0.81136478     0.11000
C181        C  0.05950205  0.45035477  0.79330230    -0.15800
C182        C  0.05015554  0.11012742  0.80035473    -0.15000
C183        C  0.06996700  0.14893738  0.81835701     0.09100
C184        C  0.09299380  0.19201685  0.84087587     0.11000
C185        C  0.11358181  0.22958971  0.85958414    -0.15800
C186        C  0.28033732  0.39625864  0.86100335    -0.15000
C187        C  0.31778771  0.41830239  0.84273655     0.09100
C188        C  0.35967015  0.44241949  0.82024475     0.11000
C189        C  0.39592571  0.46145249  0.80121235    -0.15800
C190        C  0.35899841  0.41862864  0.71427270    -0.12900
C191        C  0.38014820  0.46092389  0.73450885    -0.28100
H192        H  0.38403472  0.39880455  0.70809632     0.16100
H193        H  0.35364676  0.47757441  0.74298629     0.16700
C194        C  0.08938308  0.14833429  0.73129069    -0.12900
C195        C  0.03623925  0.10431050  0.73126564    -0.28100
H196        H  0.12086618  0.14686208  0.74593335     0.16100
H197        H  0.00593598  0.10250896  0.71460081     0.16700
C198        C  0.06298677  0.40559533  0.72921422    -0.12900
C199        C  0.06643294  0.45644451  0.72457014    -0.28100
H200        H  0.03324669  0.37663741  0.74576092     0.16100
H201        H  0.09081916  0.48270817  0.70568457     0.16700
C202        C  0.21095760  0.27003468  0.39792019    -0.12900
C203        C  0.26127826  0.27266368  0.40263162    -0.28100
H204        H  0.18458818  0.24564026  0.37902103     0.16100
H205        H  0.29034300  0.30222409  0.41927212     0.16700
C206        C  0.00513912  0.24222484  0.40755608    -0.12900
C207        C  0.05260987  0.29136446  0.40195503    -0.28100
H208        H  0.55974340  0.24268604  0.37554502     0.16100
H209        H  0.05487947  0.31606013  0.38207742     0.16700
C210        C  0.26816326  0.49446928  0.40415397    -0.12900
C211        C  0.21710937  0.44827610  0.40053106    -0.28100
H212        H  0.29963157  0.98988886  0.41828042     0.16100
H213        H  0.18960609  0.44742617  0.38239829     0.16700
C214        C  0.25506695  0.25164148  0.58771012    -0.12900
C215        C  0.26530909  0.20955704  0.59499719    -0.28100
H216        H  0.26899659  0.27394274  0.56638880     0.16100
H217        H  0.25302684  0.18981569  0.61714090     0.16700
C218        C  0.49023273  0.23479241  0.59389957    -0.12900
C219        C  0.43984011  0.23000962  0.59963509    -0.28100
H220        H  0.99408362  0.21292288  0.57101502     0.16100
H221        H  0.43251717  0.24511503  0.62098739     0.16700
C222        C  0.23974382  0.00752836  0.58905624    -0.12900
C223        C  0.28508617  0.05718953  0.59620972    -0.28100
H224        H  0.21545306  0.50078249  0.57338531     0.16100
H225        H  0.30410017  0.06287253  0.61849588     0.16700
C226        C  0.27162911  0.21067916  0.52460166    -0.15000
C227        C  0.25107242  0.22725532  0.50590546     0.09100
C228        C  0.23007958  0.24941167  0.48388377     0.11000
C229        C  0.21316945  0.27147898  0.46629439    -0.15800
C230        C  0.29387792  0.06085438  0.52620569    -0.15000
C231        C  0.27769586  0.02402416  0.50754350     0.09100
C232        C  0.24751500  0.47985094  0.48840262     0.11000
C233        C  0.22706515  0.44349523  0.46934167    -0.15800
C234        C  0.44434149  0.23399938  0.52976983    -0.15000
C235        C  0.48372267  0.25684550  0.51281236     0.09100
C236        C  0.02292220  0.27382149  0.48917570     0.11000
C237        C  0.06049112  0.29049904  0.47093977    -0.15800
C238        C  0.33295642  0.66465692  0.59531831     0.49600
H239        H  0.33261105  0.66457545  0.62045789     0.00000
C240        C  0.33390648  0.66497416  0.53660831     0.49100
H241        H  0.33429774  0.66508071  0.51145105     0.00000
C242        C  0.39238377  0.69805556  0.58187943    -0.13700
C243        C  0.30699087  0.60509043  0.58149584    -0.13500
C244        C  0.29984205  0.69125852  0.58124799    -0.13800
C245        C  0.39267576  0.69828593  0.55077346    -0.13800
C246        C  0.30802237  0.60558740  0.55041194    -0.13400
C247        C  0.30011562  0.69099163  0.55010830    -0.13700
C248        C  0.17185452  0.83599678  0.46520186     0.49000
H249        H  0.17601749  0.83838267  0.49026736     0.00000
C250        C  0.16147702  0.83043918  0.40658781     0.49100
H251        H  0.15723793  0.82831887  0.38157651     0.00000
C252        C  0.19240695  0.79845546  0.45067150    -0.13700
C253        C  0.11111712  0.81278427  0.45421798    -0.13500
C254        C  0.20498541  0.89330873  0.44950160    -0.13800
C255        C  0.18776285  0.79537376  0.41976828    -0.13800
C256        C  0.10497512  0.80954141  0.42348680    -0.13400
C257        C  0.19926266  0.89148425  0.41862500    -0.13700
Zn258      Zn  0.09489294  0.80171363  0.68016437     1.49700
Zn259      Zn  0.16829800  0.83567254  0.62002353     1.49400
Zn260      Zn  0.21145333  0.92006839  0.67474372     1.49100
Zn261      Zn  0.21616264  0.80516446  0.67861880     1.49500
O262        O  0.17222238  0.84011409  0.66390178    -1.80600
O263        O  0.03670706  0.77081963  0.64588177    -0.71200
O264        O  0.19391043  0.90986048  0.59980580    -0.71000
O265        O  0.16607568  0.93699872  0.70448890    -0.70500
O266        O  0.09091658  0.78477079  0.60565628    -0.71200
O267        O  0.08207995  0.85788850  0.70591119    -0.70800
O268        O  0.22731497  0.96969343  0.63846367    -0.71400
O269        O  0.28876606  0.86324996  0.69951822    -0.70800
O270        O  0.21569530  0.80616343  0.60326300    -0.71600
O271        O  0.28743106  0.94408937  0.69255897    -0.70900
O272        O  0.24002941  0.77344719  0.64343381    -0.71400
O273        O  0.16915147  0.74063870  0.70717116    -0.71300
O274        O  0.08355620  0.73318476  0.70568120    -0.71100
C275        C  0.04265362  0.76485624  0.61772783     0.80700
C276        C  0.21868555  0.95992660  0.61028733     0.81200
C277        C  0.11530628  0.90942673  0.71384890     0.80100
C278        C  0.31197988  0.91723273  0.70176095     0.80500
C279        C  0.23916591  0.78022346  0.61492993     0.81600
C280        C  0.11711858  0.71554257  0.71461661     0.80700
C281        C  0.00184321  0.50521998  0.73009102     0.49000
H282        H  0.00316704  0.50798161  0.70501763     0.00000
C283        C  0.99865939  0.49869919  0.78880762     0.49100
H284        H  0.99726905  0.49618784  0.81392864     0.00000
C285        C  0.44187761  0.96544012  0.75216661    -0.13700
C286        C  0.02664717  0.96761752  0.75194325    -0.13500
C287        C  0.02735021  0.56359740  0.74581751    -0.13800
C288        C  0.44551477  0.96947965  0.78288175    -0.13800
C289        C  0.03343163  0.97272462  0.78278073    -0.13400
C290        C  0.02582796  0.55956209  0.77674911    -0.13700
C291        C  0.16214762  0.82656457  0.86451156     0.49000
H292        H  0.15829926  0.82594705  0.83942850     0.00000
C293        C  0.17204598  0.82889023  0.92296732     0.49100
H294        H  0.17576116  0.82957491  0.94794021     0.00000
C295        C  0.13750270  0.85968240  0.88018829    -0.13700
C296        C  0.13265348  0.76772850  0.87883713    -0.13500
C297        C  0.22299698  0.85382434  0.87534641    -0.13800
C298        C  0.14160423  0.86094986  0.91127565    -0.13800
C299        C  0.13715136  0.76769839  0.90989255    -0.13400
C300        C  0.22961795  0.85616979  0.90601041    -0.13700
C301        C  0.33744193  0.66983810  0.07042514     0.49000
H302        H  0.33838255  0.66996914  0.04530669     0.00000
C303        C  0.33510251  0.66916278  0.12928615     0.49100
H304        H  0.33406816  0.66880027  0.15442718     0.00000
C305        C  0.27756626  0.63876293  0.08364207    -0.13700
C306        C  0.36737985  0.64026304  0.08504193    -0.13500
C307        C  0.36572526  0.72960086  0.08458916    -0.13800
C308        C  0.27654979  0.63918681  0.11457466    -0.13800
C309        C  0.36593361  0.63987317  0.11596532    -0.13400
C310        C  0.36468194  0.72878282  0.11555630    -0.13700
C311        C  0.99821584  0.99974968  0.19821259     0.49000
H312        H  0.50157078  0.00077699  0.17524595     0.00000
C313        C  0.00479440  0.01089051  0.25675963     0.49100
H314        H  0.01032038  0.50360213  0.28192203     0.00000
C315        C  0.47004672  0.52898885  0.21533123    -0.13700
C316        C  0.47152451  0.94234247  0.21462585    -0.13500
C317        C  0.05717877  0.52107721  0.20918574    -0.13800
C318        C  0.46722312  0.52844531  0.24634623    -0.13800
C319        C  0.47112368  0.94234438  0.24573109    -0.13400
C320        C  0.06415437  0.52665416  0.23988771    -0.13700
Zn321      Zn  0.25957644  0.62986133  0.35389350     1.49700
Zn322      Zn  0.37690156  0.74733898  0.34500768     1.49400
Zn323      Zn  0.37532939  0.62924754  0.34231306     1.49100
Zn324      Zn  0.31722242  0.66136320  0.28832062     1.49500
O325        O  0.33205227  0.66729023  0.33221023    -1.80600
O326        O  0.24842217  0.68731715  0.37835502    -0.71200
O327        O  0.45111877  0.76393132  0.36581758    -0.71000
O328        O  0.33506886  0.56633191  0.37253595    -0.70500
O329        O  0.33068535  0.76749917  0.37341501    -0.71200
O330        O  0.25319195  0.56469607  0.37985631    -0.70800
O331        O  0.45172348  0.68280541  0.35878789    -0.71400
O332        O  0.35219070  0.61835785  0.26756752    -0.70800
O333        O  0.39730305  0.79919644  0.30825310    -0.71600
O334        O  0.39043219  0.59588287  0.30591886    -0.70900
O335        O  0.35217872  0.74067569  0.26990905    -0.71400
O336        O  0.23236152  0.61821659  0.27954541    -0.71300
O337        O  0.19401605  0.59450771  0.32523863    -0.71100
C338        C  0.28048674  0.74011957  0.38380920     0.80700
C339        C  0.47549660  0.73391680  0.36787835     0.81200
C340        C  0.28642632  0.54468943  0.38463120     0.80100
C341        C  0.38004116  0.59529793  0.27787749     0.80500
C342        C  0.38374935  0.79065710  0.28031949     0.81600
C343        C  0.18910661  0.59353679  0.29667363     0.80700
Zn344      Zn  0.42609592  0.95709684  0.01853037     1.49700
Zn345      Zn  0.03806320  0.58221529  0.01129365     1.49400
Zn346      Zn  0.04705395  0.96888130  0.01027990     1.49100
Zn347      Zn  0.51294597  0.50408160  0.95836422     1.49500
O348        O  0.50175243  0.49930154  0.00260066    -1.80600
O349        O  0.39285102  0.49180232  0.04058367    -0.71200
O350        O  0.10752333  0.60772086  0.03624059    -0.71000
O351        O  0.50868736  0.90478095  0.03958071    -0.70500
O352        O  0.46579917  0.57943282  0.04133334    -0.71200
O353        O  0.42083521  0.89010491  0.04062015    -0.70800
O354        O  0.11371857  0.52958556  0.04296298    -0.71400
O355        O  0.02927688  0.95083403  0.93600481    -0.70800
O356        O  0.06134675  0.62821473  0.97343103    -0.71600
O357        O  0.07395690  0.93854013  0.97504315    -0.70900
O358        O  0.03094719  0.56348382  0.93668313    -0.71400
O359        O  0.39968991  0.95243576  0.94450388    -0.71300
O360        O  0.36093187  0.92718920  0.99009400    -0.71100
C361        C  0.41541364  0.54365305  0.04854342     0.80700
C362        C  0.13250857  0.58251561  0.04706168     0.81200
C363        C  0.45740264  0.87590416  0.04809253     0.80100
C364        C  0.06029337  0.93204772  0.94708842     0.80500
C365        C  0.05653991  0.61535937  0.94553185     0.81600
C366        C  0.35616063  0.92782741  0.96160628     0.80700
C367        C  0.12167624  0.55754534  0.25393012    -0.12900
C368        C  0.13133371  0.56252138  0.28380233    -0.28100
H369        H  0.15792941  0.57715545  0.23894032     0.16100
H370        H  0.09651450  0.54304739  0.29959540     0.16700
C371        C  0.44716608  0.89174959  0.26629325    -0.12900
C372        C  0.40491916  0.83938890  0.25907506    -0.28100
H373        H  0.46471136  0.89900332  0.28899231     0.16100
H374        H  0.38476884  0.83117494  0.23712656     0.16700
C375        C  0.40149845  0.56776186  0.25690418    -0.12900
C376        C  0.44214422  0.55562537  0.26556592    -0.28100
H377        H  0.38332123  0.55764575  0.23446872     0.16100
H378        H  0.45757500  0.56465378  0.28869826     0.16700
C379        C  0.38612460  0.78144431  0.06588384    -0.12900
C380        C  0.43958312  0.82479394  0.06704096    -0.28100
H381        H  0.35664391  0.78225811  0.04949405     0.16100
H382        H  0.47063736  0.82183087  0.08135022     0.16700
C383        C  0.18354551  0.61580036  0.06531153    -0.12900
C384        C  0.22716830  0.60594280  0.06455043    -0.28100
H385        H  0.18633593  0.65065936  0.07885386     0.16100
H386        H  0.22712575  0.57497763  0.04888516     0.16700
C387        C  0.39765674  0.61845272  0.06683254    -0.12900
C388        C  0.38307394  0.56326054  0.06668382    -0.28100
H389        H  0.43068657  0.64836068  0.05193954     0.16100
H390        H  0.34687520  0.53259844  0.07963221     0.16700
C391        C  0.39236009  0.61669101  0.13522283    -0.15000
C392        C  0.41219700  0.59853523  0.15356524     0.09100
C393        C  0.43321411  0.57710065  0.17613692     0.11000
C394        C  0.44996265  0.55686423  0.19504472    -0.15800
C395        C  0.22600260  0.61069417  0.13250366    -0.15000
C396        C  0.18580421  0.58820022  0.14900495     0.09100
C397        C  0.14065631  0.56343802  0.16957916     0.11000
C398        C  0.10284698  0.54355878  0.18768209    -0.15800
C399        C  0.38809254  0.77816256  0.13469969    -0.15000
C400        C  0.40706909  0.81530845  0.15335090     0.09100
C401        C  0.42898384  0.85662089  0.17630474     0.11000
C402        C  0.44795692  0.89334624  0.19520185    -0.15800
C403        C  0.28737368  0.88397144  0.91994061    -0.12900
C404        C  0.29801166  0.89902961  0.94902212    -0.28100
H405        H  0.32319919  0.89396543  0.90536528     0.16100
H406        H  0.26345309  0.88933119  0.96443128     0.16700
C407        C  0.08148962  0.66170405  0.92281470    -0.12900
C408        C  0.11108597  0.71731963  0.93078807    -0.28100
H409        H  0.07527909  0.64842531  0.89954852     0.16100
H410        H  0.11685968  0.72757533  0.95471294     0.16700
C411        C  0.07940063  0.90170799  0.92637399    -0.12900
C412        C  0.12167546  0.89057136  0.93264949    -0.28100
H413        H  0.05689341  0.88810684  0.90511481     0.16100
H414        H  0.14176035  0.90200218  0.95473362     0.16700
C415        C  0.11628039  0.88883962  0.86165839    -0.15000
C416        C  0.09960840  0.90927784  0.84284527     0.09100
C417        C  0.07958225  0.93055090  0.81970976     0.11000
C418        C  0.06032580  0.94883119  0.80111877    -0.15800
C419        C  0.04559723  0.60672350  0.79735421    -0.15000
C420        C  0.06242312  0.64264204  0.81668370     0.09100
C421        C  0.08357214  0.68319602  0.84003920     0.11000
C422        C  0.10401922  0.71933636  0.85921169    -0.15800
C423        C  0.26921983  0.87704142  0.85428151    -0.15000
C424        C  0.30894681  0.89732485  0.83745550     0.09100
C425        C  0.35643025  0.92186119  0.81852163     0.11000
C426        C  0.39721281  0.94332276  0.80245308    -0.15800
C427        C  0.36881728  0.95061737  0.71504970    -0.12900
C428        C  0.38802439  0.92909349  0.73622262    -0.28100
H429        H  0.39362197  0.99539713  0.70917240     0.16100
H430        H  0.36118302  0.88599731  0.74436636     0.16700
C431        C  0.09602500  0.66447338  0.73396320    -0.12900
C432        C  0.04657872  0.61718397  0.72839889    -0.28100
H433        H  0.12430236  0.66360321  0.75112363     0.16100
H434        H  0.02157306  0.61594884  0.70889984     0.16700
C435        C  0.09593341  0.93898460  0.73466073    -0.12900
C436        C  0.04468350  0.93470671  0.73230448    -0.28100
H437        H  0.12662242  0.96929820  0.75046363     0.16100
H438        H  0.01645794  0.90950448  0.71414823     0.16700
C439        C  0.20681690  0.76273843  0.40067577    -0.12900
C440        C  0.25977682  0.77085644  0.40289170    -0.28100
H441        H  0.17823735  0.73458148  0.38343427     0.16100
H442        H  0.28994432  0.80374138  0.41786722     0.16700
C443        C  0.03471862  0.75747341  0.38386392    -0.12900
C444        C  0.04994550  0.79111307  0.40820390    -0.28100
H445        H  0.56064051  0.74331171  0.37160611     0.16100
H446        H  0.01989015  0.80158880  0.41846242     0.16700
C447        C  0.26867703  0.98993765  0.40269517    -0.12900
C448        C  0.21832350  0.94264829  0.39910779    -0.28100
H449        H  0.29860257  0.49337591  0.41974621     0.16100
H450        H  0.19034143  0.94072769  0.38098003     0.16700
C451        C  0.26583172  0.75826432  0.59425468    -0.12900
C452        C  0.27163952  0.71334391  0.60127240    -0.28100
H453        H  0.28006568  0.77944717  0.57264877     0.16100
H454        H  0.25872456  0.69404933  0.62348220     0.16700
C455        C  0.49261732  0.73495934  0.59564706    -0.12900
C456        C  0.44182515  0.72864085  0.60209186    -0.28100
H457        H  0.00050268  0.71797713  0.57678654     0.16100
H458        H  0.43518040  0.74404368  0.62351858     0.16700
C459        C  0.23733400  0.50563546  0.59465174    -0.12900
C460        C  0.28381716  0.55460905  0.60146822    -0.28100
H461        H  0.21902014  0.00094553  0.56727315     0.16100
H462        H  0.30408368  0.55936899  0.62331072     0.16700
C463        C  0.27115910  0.71083018  0.53029748    -0.15000
C464        C  0.25104969  0.72747830  0.51118964     0.09100
C465        C  0.23049669  0.74850799  0.48802399     0.11000
C466        C  0.21357763  0.76917036  0.46937362    -0.15800
C467        C  0.28727205  0.55675252  0.53090030    -0.15000
C468        C  0.26950723  0.52035140  0.51179595     0.09100
C469        C  0.25591888  0.98201262  0.48516919     0.11000
C470        C  0.23422668  0.94382572  0.46735220    -0.15800
C471        C  0.44168143  0.72857591  0.53172034    -0.15000
C472        C  0.47980651  0.75026075  0.51376989     0.09100
C473        C  0.02837323  0.77878532  0.49394470     0.11000
C474        C  0.06517677  0.79510394  0.47528073    -0.15800
C475        C  0.82858864  0.16446058  0.58987966     0.49600
H476        H  0.82691856  0.16253318  0.61499878     0.00000
C477        C  0.83254819  0.16873592  0.53124257     0.49100
H478        H  0.83430552  0.17054281  0.50611157     0.00000
C479        C  0.88866121  0.19850105  0.57748285    -0.13700
C480        C  0.80400132  0.10614893  0.57489382    -0.13500
C481        C  0.79560636  0.19133651  0.57607295    -0.13800
C482        C  0.89051092  0.20110099  0.54642912    -0.13800
C483        C  0.80641212  0.10843516  0.54389822    -0.13400
C484        C  0.79775246  0.19347867  0.54497942    -0.13700
C485        C  0.67208197  0.34165461  0.46258613     0.49000
H486        H  0.67671053  0.34293767  0.48762363     0.00000
C487        C  0.66014061  0.33787601  0.40408679     0.49100
H488        H  0.65506288  0.33647389  0.37912219     0.00000
C489        C  0.69332537  0.30552345  0.44693196    -0.13700
C490        C  0.61090608  0.31751607  0.45208158    -0.13500
C491        C  0.70388383  0.39986572  0.44760491    -0.13800
C492        C  0.68775159  0.30328498  0.41604213    -0.13800
C493        C  0.60397142  0.31503512  0.42141942    -0.13400
C494        C  0.69718837  0.39870530  0.41672258    -0.13700
Zn495      Zn  0.58622542  0.30302711  0.67687397     1.49700
Zn496      Zn  0.66305272  0.33317129  0.61939726     1.49400
Zn497      Zn  0.71126968  0.41024704  0.67666093     1.49100
Zn498      Zn  0.69310305  0.28270736  0.67574077     1.49500
O499        O  0.66367021  0.33239758  0.66299673    -1.80600
O500        O  0.53117292  0.27231829  0.64192099    -0.71200
O501        O  0.68935306  0.40952582  0.60232012    -0.71000
O502        O  0.66557704  0.43385976  0.70381127    -0.70500
O503        O  0.58718687  0.28313839  0.60302857    -0.71200
O504        O  0.57681709  0.36357711  0.69837263    -0.70800
O505        O  0.73831828  0.46448893  0.64087272    -0.71400
O506        O  0.76233354  0.32746909  0.70237495    -0.70800
O507        O  0.71225826  0.30648293  0.60191359    -0.71600
O508        O  0.77956326  0.41704464  0.69920947    -0.70900
O509        O  0.71946513  0.25548244  0.63933504    -0.71400
O510        O  0.63355472  0.21554522  0.69970699    -0.71300
O511        O  0.56509178  0.23758692  0.70572213    -0.71100
C512        C  0.53844888  0.26486634  0.61421127     0.80700
C513        C  0.72309113  0.45797242  0.61317435     0.81200
C514        C  0.61260012  0.41227268  0.70869372     0.80100
C515        C  0.79289791  0.38028922  0.70833036     0.80500
C516        C  0.72792156  0.27251687  0.61191574     0.81600
C517        C  0.58632146  0.20559256  0.71103930     0.80700
C518        C  0.49963789  0.99709381  0.73635228     0.49000
H519        H  0.49690209  0.99383118  0.71129630     0.00000
C520        C  0.50566898  0.00393796  0.79507162     0.49100
H521        H  0.50800525  0.00649249  0.82018198     0.00000
C522        C  0.94135558  0.47110860  0.74295391    -0.13700
C523        C  0.51932255  0.46642522  0.74515570    -0.13500
C524        C  0.52812299  0.05870010  0.74844223    -0.13800
C525        C  0.94039264  0.46782219  0.77391830    -0.13800
C526        C  0.52421061  0.46928750  0.77603879    -0.13400
C527        C  0.53036947  0.06161594  0.77948032    -0.13700
C528        C  0.66830030  0.33392010  0.86124995     0.49000
H529        H  0.66619105  0.32996808  0.83616019     0.00000
C530        C  0.67365434  0.34386123  0.91981104     0.49100
H531        H  0.67581417  0.34784080  0.94473654     0.00000
C532        C  0.64105594  0.36721846  0.87327526    -0.13700
C533        C  0.63914112  0.27696315  0.87754082    -0.13500
C534        C  0.72835089  0.36415757  0.87332240    -0.13800
C535        C  0.64304071  0.37364353  0.90405589    -0.13800
C536        C  0.64033476  0.28046602  0.90873844    -0.13400
C537        C  0.73318900  0.36969074  0.90413426    -0.13700
C538        C  0.83095650  0.17150041  0.06856346     0.49000
H539        H  0.83239746  0.17543340  0.04352996     0.00000
C540        C  0.82722958  0.16221533  0.12717938     0.49100
H541        H  0.82585764  0.15834171  0.15225300     0.00000
C542        C  0.77075833  0.13550567  0.08127308    -0.13700
C543        C  0.86415408  0.14331129  0.08103196    -0.13500
C544        C  0.85520975  0.22889762  0.08527927    -0.13800
C545        C  0.76911520  0.13165723  0.11223949    -0.13800
C546        C  0.86157321  0.13845746  0.11189303    -0.13400
C547        C  0.85321682  0.22329350  0.11610941    -0.13700
C548        C  0.49988027  0.49836610  0.20253287     0.49000
H549        H  0.99145532  0.48772157  0.17352698     0.00000
C550        C  0.49623966  0.49751400  0.26110113     0.49100
H551        H  0.50151653  0.00373973  0.28406572     0.00000
C552        C  0.97346512  0.03521406  0.21026388    -0.13700
C553        C  0.96746108  0.43431943  0.21497618    -0.13500
C554        C  0.56104748  0.03070280  0.21412838    -0.13800
C555        C  0.97548983  0.04108912  0.24101046    -0.13800
C556        C  0.97324799  0.43788231  0.24595910    -0.13400
C557        C  0.56184280  0.03217787  0.24529867    -0.13700
Zn558      Zn  0.75221593  0.13334435  0.34636105     1.49700
Zn559      Zn  0.87697891  0.24358340  0.34786160     1.49400
Zn560      Zn  0.86176229  0.11925627  0.35613889     1.49100
Zn561      Zn  0.84069112  0.15825292  0.29173201     1.49500
O562        O  0.83241940  0.16365913  0.33539774    -1.80600
O563        O  0.74045893  0.19340586  0.36870212    -0.71200
O564        O  0.94479545  0.25557225  0.37309492    -0.71000
O565        O  0.80035399  0.05091036  0.37701325    -0.70500
O566        O  0.82862271  0.26524052  0.37349454    -0.71200
O567        O  0.72524786  0.06311825  0.37359102    -0.70800
O568        O  0.92291940  0.16731453  0.38586607    -0.71400
O569        O  0.88442341  0.11677815  0.28237684    -0.70800
O570        O  0.90566580  0.29722892  0.31154990    -0.71600
O571        O  0.89792765  0.08933689  0.32749340    -0.70900
O572        O  0.88371522  0.23695083  0.27311324    -0.71400
O573        O  0.76317132  0.11679747  0.27168465    -0.71300
O574        O  0.70305651  0.10686356  0.30843612    -0.71100
C575        C  0.77577410  0.24269643  0.37879897     0.80700
C576        C  0.95488539  0.22087789  0.38786408     0.81200
C577        C  0.74867160  0.03466770  0.38256841     0.80100
C578        C  0.90411596  0.09187895  0.29901740     0.80500
C579        C  0.90597392  0.28755017  0.28335136     0.81600
C580        C  0.71305285  0.10086479  0.28087459     0.80700
Zn581      Zn  0.92405518  0.46568972  0.02184766     1.49700
Zn582      Zn  0.52947904  0.08160886  0.00974979     1.49400
Zn583      Zn  0.54713391  0.46979233  0.02138589     1.49100
Zn584      Zn  0.99780417  0.99944834  0.95235762     1.49500
O585        O  0.99926868  0.00055941  0.99621203    -1.80600
O586        O  0.90103807  0.00072202  0.03872146    -0.71200
O587        O  0.59553709  0.10289407  0.03770069    -0.71000
O588        O  0.99777657  0.40757882  0.05091888    -0.70500
O589        O  0.96997198  0.09006744  0.03226216    -0.71200
O590        O  0.91195473  0.39874714  0.04777599    -0.70800
O591        O  0.61613256  0.03299323  0.03211108    -0.71400
O592        O  0.55988341  0.46334898  0.94618028    -0.70800
O593        O  0.55828464  0.13663993  0.97382821    -0.71600
O594        O  0.57981559  0.43953124  0.99087640    -0.70900
O595        O  0.52397363  0.07681805  0.93497967    -0.71400
O596        O  0.90406009  0.44320695  0.94660585    -0.71300
O597        O  0.86186943  0.43431690  0.99092502    -0.71100
C598        C  0.92235037  0.05391643  0.04345331     0.80700
C599        C  0.62680519  0.08097954  0.04308493     0.81200
C600        C  0.94550577  0.38196655  0.05755952     0.80100
C601        C  0.58231937  0.43974248  0.96221686     0.80500
C602        C  0.55165019  0.12759635  0.94542794     0.81600
C603        C  0.85901959  0.42731044  0.96244659     0.80700
C604        C  0.61216937  0.05989254  0.26591055    -0.12900
C605        C  0.66584681  0.07445562  0.25871015    -0.28100
H606        H  0.60346003  0.06707745  0.28894566     0.16100
H607        H  0.67614636  0.06601901  0.23642097     0.16700
C608        C  0.94775916  0.38949723  0.26809020    -0.12900
C609        C  0.93281916  0.33512247  0.26143470    -0.28100
H610        H  0.94223636  0.39983304  0.29109476     0.16100
H611        H  0.94041236  0.32403034  0.23913741     0.16700
C612        C  0.93439840  0.06446291  0.28547040    -0.12900
C613        C  0.94992130  0.07202296  0.25637029    -0.28100
H614        H  0.94270560  0.03665767  0.29971722     0.16100
H615        H  0.94038105  0.09966878  0.24265719     0.16700
C616        C  0.87516923  0.28336720  0.06894039    -0.12900
C617        C  0.92359755  0.33042483  0.07621944    -0.28100
H618        H  0.85192875  0.28321514  0.04886680     0.16100
H619        H  0.95068110  0.32883474  0.09387777     0.16700
C620        C  0.67597021  0.11190731  0.06313038    -0.12900
C621        C  0.72141428  0.10504569  0.06117588    -0.28100
H622        H  0.67558979  0.14208044  0.07923425     0.16100
H623        H  0.72428221  0.07914637  0.04324457     0.16700
C624        C  0.89670719  0.12542016  0.06119282    -0.12900
C625        C  0.89080428  0.07306890  0.06295811    -0.28100
H626        H  0.92313382  0.15462958  0.04372265     0.16100
H627        H  0.86001391  0.04232511  0.07851800     0.16700
C628        C  0.88980428  0.11567027  0.12981522    -0.15000
C629        C  0.91019969  0.09771015  0.14782315     0.09100
C630        C  0.93157882  0.07727155  0.17055609     0.11000
C631        C  0.94977494  0.05906152  0.18968632    -0.15800
C632        C  0.71891808  0.10405567  0.13071668    -0.15000
C633        C  0.68281805  0.08671646  0.14993855     0.09100
C634        C  0.64383054  0.06957018  0.17408431     0.11000
C635        C  0.60904677  0.05400434  0.19398273    -0.15800
C636        C  0.87131035  0.26906392  0.13740362    -0.15000
C637        C  0.88789014  0.30461353  0.15684609     0.09100
C638        C  0.91081255  0.34591868  0.17964596     0.11000
C639        C  0.93448414  0.38375791  0.19756965    -0.15800
C640        C  0.79103030  0.39743329  0.91887638    -0.12900
C641        C  0.80092833  0.39968066  0.94873491    -0.28100
H642        H  0.82776470  0.41638829  0.90420026     0.16100
H643        H  0.76528940  0.38162363  0.96412578     0.16700
C644        C  0.57561066  0.17627407  0.92360567    -0.12900
C645        C  0.61456620  0.23086155  0.93071430    -0.28100
H646        H  0.55934528  0.16534226  0.90089759     0.16100
H647        H  0.62821891  0.24048582  0.95409464     0.16700
C648        C  0.61179886  0.41059741  0.94856718    -0.12900
C649        C  0.61659884  0.40552483  0.91870124    -0.28100
H650        H  0.62879182  0.39149951  0.96401121     0.16100
H651        H  0.59878460  0.42491292  0.90396774     0.16700
C652        C  0.61480107  0.38854986  0.85250621    -0.15000
C653        C  0.59362012  0.40471960  0.83381431     0.09100
C654        C  0.56926604  0.42380489  0.81177437     0.11000
C655        C  0.54860337  0.44236383  0.79412996    -0.15800
C656        C  0.55767696  0.11271792  0.79746529    -0.15000
C657        C  0.57745601  0.14978722  0.81624176     0.09100
C658        C  0.59824781  0.19014368  0.83983831     0.11000
C659        C  0.61584740  0.22651387  0.85903709    -0.15800
C660        C  0.77501645  0.38523137  0.85242201    -0.15000
C661        C  0.81098936  0.40240439  0.83324561     0.09100
C662        C  0.85248631  0.42304935  0.81048835     0.11000
C663        C  0.89025153  0.44222173  0.79232619    -0.15800
C664        C  0.84462477  0.39885215  0.72667972    -0.12900
C665        C  0.89021364  0.45073630  0.72355668    -0.28100
H666        H  0.84593478  0.36867005  0.74246969     0.16100
H667        H  0.89105903  0.47878758  0.70569781     0.16700
C668        C  0.55528095  0.15634176  0.73125768    -0.12900
C669        C  0.55769050  0.10820846  0.72792433    -0.28100
H670        H  0.52806221  0.15882116  0.74843284     0.16100
H671        H  0.58025565  0.10374645  0.70882163     0.16700
C672        C  0.59257802  0.44427764  0.72727352    -0.12900
C673        C  0.53916870  0.43511142  0.72564157    -0.28100
H674        H  0.62275683  0.47702618  0.74230679     0.16100
H675        H  0.51014261  0.40628913  0.70875672     0.16700
C676        C  0.70491398  0.27015287  0.39589939    -0.12900
C677        C  0.75648920  0.27471280  0.39805379    -0.28100
H678        H  0.67600825  0.24437860  0.37812412     0.16100
H679        H  0.78697964  0.30512842  0.41391455     0.16700
C680        C  0.53196752  0.25836726  0.38331124    -0.12900
C681        C  0.54819032  0.29470837  0.40657420    -0.28100
H682        H  0.00490610  0.21441834  0.42539064     0.16100
H683        H  0.51839898  0.30590982  0.41649119     0.16700
C684        C  0.76667535  0.49625436  0.40010458    -0.12900
C685        C  0.71572550  0.44971582  0.39728832    -0.28100
H686        H  0.68170987  0.97861127  0.41460406     0.16100
H687        H  0.68778391  0.44734422  0.37902982     0.16700
C688        C  0.75667776  0.25367861  0.59060779    -0.12900
C689        C  0.76381592  0.20907934  0.59626434    -0.28100
H690        H  0.77270634  0.27783942  0.56990637     0.16100
H691        H  0.74958857  0.18690016  0.61770171     0.16700
C692        C  0.98709536  0.22783138  0.59244513    -0.12900
C693        C  0.93724484  0.22411818  0.59863385    -0.28100
H694        H  0.49724994  0.21744017  0.57331255     0.16100
H695        H  0.93054104  0.23764217  0.62062611     0.16700
C696        C  0.73799067  0.00516630  0.58716820    -0.12900
C697        C  0.78271144  0.05534259  0.59413151    -0.28100
H698        H  0.72302265  0.50126530  0.57118543     0.16100
H699        H  0.80275540  0.06121821  0.61613952     0.16700
C700        C  0.76921688  0.21392111  0.52536094    -0.15000
C701        C  0.74983371  0.23123288  0.50624977     0.09100
C702        C  0.73034780  0.25330052  0.48315813     0.11000
C703        C  0.71416224  0.27507667  0.46481796    -0.15800
C704        C  0.78863717  0.06056883  0.52393107    -0.15000
C705        C  0.77296691  0.02288108  0.50563353     0.09100
C706        C  0.75501286  0.48634227  0.48526619     0.11000
C707        C  0.73329479  0.44990887  0.46625452    -0.15800
C708        C  0.94057890  0.23114438  0.52827355    -0.15000
C709        C  0.97936607  0.25239380  0.51078393     0.09100
C710        C  0.52788240  0.28011150  0.49168590     0.11000
C711        C  0.56522398  0.29788703  0.47335551    -0.15800
C712        C  0.83474847  0.66602806  0.59477529     0.49600
H713        H  0.83293949  0.66465740  0.61989537     0.00000
C714        C  0.83894500  0.66929073  0.53611623     0.49100
H715        H  0.84084227  0.67074785  0.51098271     0.00000
C716        C  0.89473050  0.70106426  0.58245794    -0.13700
C717        C  0.81126930  0.60738043  0.58012919    -0.13500
C718        C  0.80113183  0.69188798  0.58047628    -0.13800
C719        C  0.89671025  0.70300450  0.55139338    -0.13800
C720        C  0.81367167  0.60927734  0.54905155    -0.13400
C721        C  0.80304911  0.69311766  0.54936503    -0.13700
C722        C  0.66751486  0.83086889  0.46412427     0.49000
H723        H  0.67092608  0.83273129  0.48921495     0.00000
C724        C  0.65946584  0.82649979  0.40537824     0.49100
H725        H  0.65631686  0.82517944  0.38032581     0.00000
C726        C  0.68929074  0.79397704  0.44955272    -0.13700
C727        C  0.60708113  0.80727382  0.45260052    -0.13500
C728        C  0.70046763  0.88881120  0.44889044    -0.13800
C729        C  0.68546407  0.79126686  0.41856548    -0.13800
C730        C  0.60214140  0.80512542  0.42176423    -0.13400
C731        C  0.69662370  0.88718543  0.41799080    -0.13700
Zn732      Zn  0.59413319  0.80862929  0.67682645     1.49700
Zn733      Zn  0.66696908  0.83365346  0.61835254     1.49400
Zn734      Zn  0.71501520  0.91796497  0.67265801     1.49100
Zn735      Zn  0.70729232  0.79659942  0.67781384     1.49500
O736        O  0.67089966  0.83856852  0.66202064    -1.80600
O737        O  0.53663035  0.77857036  0.64249563    -0.71200
O738        O  0.69088172  0.90750852  0.59813483    -0.71000
O739        O  0.67502005  0.94014401  0.70355798    -0.70500
O740        O  0.58996943  0.78106967  0.60390623    -0.71200
O741        O  0.58684439  0.86777287  0.70144344    -0.70800
O742        O  0.73081760  0.96746438  0.63630973    -0.71400
O743        O  0.77920614  0.85087951  0.70238171    -0.70800
O744        O  0.71600710  0.80581167  0.60224629    -0.71600
O745        O  0.78966019  0.93527566  0.68942210    -0.70900
O746        O  0.73444099  0.76793499  0.64242866    -0.71400
O747        O  0.64945961  0.72777395  0.70238526    -0.71300
O748        O  0.57496483  0.74170048  0.70382088    -0.71100
C749        C  0.54200268  0.76643303  0.61527009     0.80700
C750        C  0.71849936  0.95763029  0.60838952     0.81200
C751        C  0.62328708  0.91672111  0.71130109     0.80100
C752        C  0.80817463  0.90530823  0.70190429     0.80500
C753        C  0.73725633  0.77789225  0.61406589     0.81600
C754        C  0.59912008  0.71312831  0.71093551     0.80700
C755        C  0.49279244  0.50118016  0.73225344     0.49000
H756        H  0.48857716  0.49920919  0.70723806     0.00000
C757        C  0.50276668  0.50596952  0.79093733     0.49100
H758        H  0.50703328  0.50794125  0.81599719     0.00000
C759        C  0.93408743  0.96026887  0.75701048    -0.13700
C760        C  0.53372829  0.97133280  0.75041776    -0.13500
C761        C  0.53128563  0.56199030  0.74455344    -0.13800
C762        C  0.94146713  0.96523623  0.78767352    -0.13800
C763        C  0.53744045  0.97584313  0.78132457    -0.13400
C764        C  0.53540928  0.56363920  0.77551642    -0.13700
C765        C  0.66725294  0.83484047  0.86652259     0.49000
H766        H  0.67149228  0.84075649  0.84156380     0.00000
C767        C  0.65774021  0.82072782  0.92473620     0.49100
H768        H  0.65467559  0.81606375  0.94963181     0.00000
C769        C  0.63594550  0.86214002  0.88138096    -0.13700
C770        C  0.63587159  0.77292163  0.87595004    -0.13500
C771        C  0.72377243  0.85952840  0.88288237    -0.13800
C772        C  0.63058217  0.85558098  0.91230233    -0.13800
C773        C  0.63022654  0.76381456  0.90646210    -0.13400
C774        C  0.71977552  0.85344562  0.91379329    -0.13700
C775        C  0.82734774  0.66694120  0.07335238     0.49000
H776        H  0.82363829  0.66420044  0.04830435     0.00000
C777        C  0.83567673  0.67277052  0.13199432     0.49100
H778        H  0.83898063  0.67496473  0.15708690     0.00000
C779        C  0.77014468  0.63835935  0.08955573    -0.13700
C780        C  0.85865509  0.63753876  0.08665558    -0.13500
C781        C  0.85882485  0.72845678  0.08559234    -0.13800
C782        C  0.77459728  0.64183172  0.12043634    -0.13800
C783        C  0.86361927  0.64148001  0.11753172    -0.13400
C784        C  0.86279555  0.73074437  0.11654783    -0.13700
C785        C  0.50162917  0.00147934  0.20041000     0.49000
H786        H  0.99554907  0.99525674  0.17314938     0.00000
C787        C  0.50165691  0.00308971  0.25894586     0.49100
H788        H  0.49464266  0.49717193  0.28620982     0.00000
C789        C  0.97069802  0.52536738  0.21250152    -0.13700
C790        C  0.96743419  0.94356773  0.21495128    -0.13500
C791        C  0.55827554  0.52699350  0.21750565    -0.13800
C792        C  0.97506324  0.52945812  0.24351255    -0.13800
C793        C  0.97097131  0.94830668  0.24603970    -0.13400
C794        C  0.55705802  0.52709831  0.24864215    -0.13700
Zn795      Zn  0.76144477  0.63080639  0.34585994     1.49700
Zn796      Zn  0.88134322  0.74911395  0.34564176     1.49400
Zn797      Zn  0.88122812  0.63134721  0.34110179     1.49100
Zn798      Zn  0.83646157  0.67069717  0.28593696     1.49500
O799        O  0.83952011  0.67062538  0.32991241    -1.80600
O800        O  0.74692401  0.68606559  0.37186460    -0.71200
O801        O  0.95324401  0.76348436  0.36827821    -0.71000
O802        O  0.83670229  0.56951155  0.37084780    -0.70500
O803        O  0.83118191  0.76479815  0.37351923    -0.71200
O804        O  0.75133241  0.56269431  0.37140418    -0.70800
O805        O  0.95608424  0.68394022  0.35944007    -0.71400
O806        O  0.86598683  0.62264796  0.26671791    -0.70800
O807        O  0.90739359  0.80611947  0.31080287    -0.71600
O808        O  0.89928610  0.59654181  0.30576128    -0.70900
O809        O  0.88339282  0.74976432  0.27040976    -0.71400
O810        O  0.75692280  0.64065303  0.27103681    -0.71300
O811        O  0.70272774  0.60212766  0.31142704    -0.71100
C812        C  0.77912171  0.73706661  0.38099251     0.80700
C813        C  0.97826018  0.73402151  0.36996233     0.81200
C814        C  0.78556776  0.54541066  0.37968050     0.80100
C815        C  0.89078996  0.59703730  0.27753805     0.80500
C816        C  0.90717313  0.79899578  0.28228153     0.81600
C817        C  0.70836121  0.61247321  0.28307943     0.80700
Zn818      Zn  0.92158991  0.95346220  0.01140967     1.49700
Zn819      Zn  0.52725002  0.57346943  0.02102409     1.49400
Zn820      Zn  0.54775693  0.97161883  0.01024541     1.49100
Zn821      Zn  0.99105339  0.48572114  0.95851023     1.49500
O822        O  0.99892196  0.50041525  0.00266206    -1.80600
O823        O  0.91382045  0.52350529  0.04671890    -0.71200
O824        O  0.58899759  0.59602088  0.05170045    -0.71000
O825        O  0.00191337  0.90179272  0.03875298    -0.70500
O826        O  0.99179053  0.60476615  0.03623778    -0.71200
O827        O  0.91338328  0.88570054  0.03545666    -0.70800
O828        O  0.61171409  0.52827749  0.04587621    -0.71400
O829        O  0.52132579  0.95102765  0.93622959    -0.70800
O830        O  0.55839316  0.63304282  0.99003088    -0.71600
O831        O  0.57021613  0.94081378  0.97398769    -0.70900
O832        O  0.55411971  0.59060642  0.94615166    -0.71400
O833        O  0.91788005  0.96795010  0.93735824    -0.71300
O834        O  0.86370823  0.92551567  0.97728695    -0.71100
C835        C  0.94455651  0.57727884  0.04947801     0.80700
C836        C  0.62094344  0.57524021  0.05731263     0.81200
C837        C  0.94954379  0.87247928  0.04543180     0.80100
C838        C  0.55395823  0.93322326  0.94644132     0.80500
C839        C  0.56768733  0.63555233  0.96188589     0.81600
C840        C  0.86936810  0.93811411  0.94927254     0.80700
C841        C  0.60673789  0.54968509  0.26975008    -0.12900
C842        C  0.65860088  0.59242977  0.26286955    -0.28100
H843        H  0.59956151  0.53072757  0.29210081     0.16100
H844        H  0.66610652  0.61379107  0.24129868     0.16700
C845        C  0.94517315  0.90040594  0.26810612    -0.12900
C846        C  0.93561706  0.84780100  0.26166850    -0.28100
H847        H  0.93491136  0.90930713  0.29043421     0.16100
H848        H  0.94818047  0.83885903  0.24009484     0.16700
C849        C  0.91009380  0.56765172  0.25667245    -0.12900
C850        C  0.95349652  0.55878760  0.26360401    -0.28100
H851        H  0.88800355  0.55380740  0.23532456     0.16100
H852        H  0.97327251  0.57169229  0.28571469     0.16700
C853        C  0.87754711  0.77874896  0.06549667    -0.12900
C854        C  0.93091237  0.82257639  0.06566101    -0.28100
H855        H  0.84745189  0.77772532  0.04892767     0.16100
H856        H  0.96219775  0.82086360  0.08035423     0.16700
C857        C  0.67051175  0.60721267  0.07683663    -0.12900
C858        C  0.71748083  0.60378115  0.07247223    -0.28100
H859        H  0.67023347  0.63712579  0.09314243     0.16100
H860        H  0.71932696  0.57841595  0.05391632     0.16700
C861        C  0.87485096  0.60281366  0.06773214    -0.12900
C862        C  0.92688518  0.60939188  0.06908177    -0.28100
H863        H  0.84477101  0.57441864  0.05106079     0.16100
H864        H  0.95878364  0.64259361  0.08325846     0.16700
C865        C  0.88868849  0.61560482  0.13597416    -0.15000
C866        C  0.90856264  0.59576228  0.15334905     0.09100
C867        C  0.93055300  0.57309769  0.17481228     0.11000
C868        C  0.94858683  0.55262442  0.19294035    -0.15800
C869        C  0.72757654  0.61512602  0.14104089    -0.15000
C870        C  0.69006449  0.59389210  0.15933077     0.09100
C871        C  0.64654217  0.56985810  0.18099619     0.11000
C872        C  0.60805344  0.55002107  0.19877517    -0.15800
C873        C  0.88518635  0.78130386  0.13473454    -0.15000
C874        C  0.90069617  0.81727441  0.15399410     0.09100
C875        C  0.91855573  0.85639153  0.17803535     0.11000
C876        C  0.93750023  0.89266545  0.19717863    -0.15800
C877        C  0.76853264  0.87383256  0.93528300    -0.12900
C878        C  0.81944809  0.91929127  0.92955006    -0.28100
H879        H  0.76176063  0.85120072  0.95652247     0.16100
H880        H  0.82594947  0.94417233  0.90926299     0.16700
C881        C  0.59530190  0.69351205  0.94876358    -0.12900
C882        C  0.60303773  0.70469899  0.91920339    -0.28100
H883        H  0.60836654  0.72819359  0.96468283     0.16100
H884        H  0.58844359  0.66900677  0.90372577     0.16700
C885        C  0.57248544  0.90275037  0.92539655    -0.12900
C886        C  0.60839443  0.88370053  0.93333448    -0.28100
H887        H  0.55443426  0.89504107  0.90294482     0.16100
H888        H  0.62280830  0.88879023  0.95662932     0.16700
C889        C  0.61747188  0.89326629  0.86253557    -0.15000
C890        C  0.60223152  0.91448538  0.84342566     0.09100
C891        C  0.58298086  0.93553271  0.81981511     0.11000
C892        C  0.56398701  0.95295846  0.80062460    -0.15800
C893        C  0.56663816  0.61392393  0.79344667    -0.15000
C894        C  0.58658905  0.65228460  0.81130435     0.09100
C895        C  0.60449300  0.69393438  0.83392799     0.11000
C896        C  0.61809375  0.72896540  0.85351654    -0.15800
C897        C  0.77476597  0.88129391  0.86537938    -0.15000
C898        C  0.81442797  0.89888188  0.84851948     0.09100
C899        C  0.85872728  0.92009548  0.82745417     0.11000
C900        C  0.89606499  0.93960736  0.80912097    -0.15800
C901        C  0.86529447  0.93636901  0.71531171    -0.12900
C902        C  0.87807974  0.92360554  0.74240775    -0.28100
H903        H  0.89567098  0.97535694  0.70413889     0.16100
H904        H  0.84560003  0.88792791  0.75497891     0.16700
C905        C  0.56725534  0.66267305  0.73021539    -0.12900
C906        C  0.56380729  0.61216453  0.72458955    -0.28100
H907        H  0.54198461  0.66602159  0.74824307     0.16100
H908        H  0.58335622  0.60670216  0.70442763     0.16700
C909        C  0.60547832  0.94760388  0.73203251    -0.12900
C910        C  0.55221199  0.93813253  0.73183171    -0.28100
H911        H  0.63711455  0.98103488  0.74620412     0.16100
H912        H  0.52207992  0.90871843  0.71550432     0.16700
C913        C  0.70449442  0.75862892  0.39909200    -0.12900
C914        C  0.75708096  0.76554241  0.40126206    -0.28100
H915        H  0.67653704  0.73243517  0.38110799     0.16100
H916        H  0.78674785  0.79678782  0.41709741     0.16700
C917        C  0.53272311  0.75759025  0.38087857    -0.12900
C918        C  0.54766335  0.78857984  0.40619784    -0.28100
H919        H  0.06261194  0.74235186  0.37554228     0.16100
H920        H  0.51722599  0.79764890  0.41720893     0.16700
C921        C  0.71551978  0.98192148  0.40017509    -0.12900
C922        C  0.72603419  0.93817706  0.39846814    -0.28100
H923        H  0.79731341  0.49623227  0.41594915     0.16100
H924        H  0.75644144  0.93922191  0.38222132     0.16700
C925        C  0.76562607  0.75734960  0.59367501    -0.12900
C926        C  0.77077909  0.71189326  0.60022682    -0.28100
H927        H  0.78174149  0.78002392  0.57257070     0.16100
H928        H  0.75608671  0.69092084  0.62193322     0.16700
C929        C  0.99367627  0.73464919  0.59767832    -0.12900
C930        C  0.94317413  0.72955234  0.60357291    -0.28100
H931        H  0.49894024  0.71714000  0.57504169     0.16100
H932        H  0.93599597  0.74419454  0.62510845     0.16700
C933        C  0.74475725  0.50681916  0.59257944    -0.12900
C934        C  0.78986049  0.55659721  0.59962901    -0.28100
H935        H  0.71616354  0.99837560  0.56571343     0.16100
H936        H  0.80958494  0.56213148  0.62169651     0.16700
C937        C  0.77302321  0.71153697  0.52938166    -0.15000
C938        C  0.75159643  0.72660067  0.51017790     0.09100
C939        C  0.72933446  0.74584753  0.48695417     0.11000
C940        C  0.71121385  0.76538819  0.46829430    -0.15800
C941        C  0.79445244  0.56144598  0.52881504    -0.15000
C942        C  0.77732088  0.52607672  0.50910676     0.09100
C943        C  0.75207451  0.97903070  0.48399867     0.11000
C944        C  0.73085034  0.93969254  0.46667267    -0.15800
C945        C  0.94664099  0.73446152  0.53331418    -0.15000
C946        C  0.98527419  0.75676042  0.51579714     0.09100
C947        C  0.52299941  0.77219015  0.49181853     0.11000
C948        C  0.56027955  0.78886019  0.47332567    -0.15800
loop_ 
_geom_bond_atom_site_label_1 
_geom_bond_atom_site_label_2 
_geom_bond_distance 
_geom_bond_site_symmetry_2 
_ccdc_geom_bond_type 
C1            H2   1.113       .  S
C1            C7   1.528       .  S
C1            C6   1.526       .  S
C1            C5   1.527       .  S
C3            H4   1.113       .  S
C3            C9   1.523       .  S
C3            C8   1.523       .  S
C3           C10   1.523       .  S
C5            C8   1.374       .  D
C5          C219   1.474       .  S
C6            C9   1.372       .  D
C6          C223   1.471       .  S
C7           C10   1.374       .  D
C7          C215   1.472       .  S
C8          C234   1.436       .  S
C9          C230   1.431       .  S
C10         C226   1.433       .  S
C11          H12   1.113       .  S
C11          C17   1.524       .  S
C11          C16   1.527       .  S
C11          C15   1.520       .  S
C13          H14   1.111       .  S
C13          C19   1.539       .  S
C13          C18   1.550       .  S
C13          C20   1.544       .  S
C15          C18   1.370       .  D
C15         C229   1.434       .  S
C16          C19   1.372       .  D
C16         C237   1.440       .  S
C17          C20   1.373       .  D
C17         C233   1.439       .  S
C18         C202   1.492       .  S
C19         C207   1.484       .  S
C20         C211   1.484       .  S
Zn21         O25   1.960       .  S
Zn21         O26   2.036       .  S
Zn21         O30   2.015       .  S
Zn21         O37   2.045       .  S
Zn22         O25   1.946       .  S
Zn22         O27   1.975       .  S
Zn22         O29   1.971       .  S
Zn22         O33   1.972       .  S
Zn23         O25   1.968       .  S
Zn23         O28   2.053       .  S
Zn23         O31   2.037       .  S
Zn23         O34   2.070       .  S
Zn24         O25   1.939       .  S
Zn24         O32   2.005       .  S
Zn24         O35   2.003       .  S
Zn24         O36   2.023       .  S
O26          C38   1.276       .  A
O27          C39   1.266       .  A
O28          C40   1.280       .  A
O29          C38   1.265       .  A
O30          C40   1.274       .  A
O31          C39   1.276       .  A
O32          C41   1.271       .  A
O33          C42   1.265       .  A
O34          C41   1.281       .  A
O35          C42   1.273       .  A
O36          C43   1.274       .  A
O37          C43   1.276       .  A
C38         C692   1.464   1_455  S
C39         C459   1.468       .  S
C40         C198   1.475       .  S
C41         C190   1.483       .  S
C42         C214   1.461       .  S
C43         C194   1.480       .  S
C44          H45   1.110       .  S
C44          C50   1.551   1_665  S
C44         C286   1.543   1_655  S
C44         C759   1.543       .  S
C46          H47   1.113       .  S
C46          C53   1.525       .  S
C46         C289   1.526   1_545  S
C46         C762   1.529   1_445  S
C48         C755   1.553       .  S
C48          C51   1.367       .  D
C48         C191   1.488       .  S
C49         C281   1.551       .  S
C49          C52   1.373       .  D
C49         C199   1.489       .  S
C50          C53   1.375       .  D
C50         C195   1.486       .  S
C51         C757   1.522       .  S
C51         C189   1.442       .  S
C52         C283   1.521   1_455  S
C52         C181   1.442       .  S
C53         C182   1.453       .  S
C54          H55   1.114       .  S
C54          C60   1.527       .  S
C54          C59   1.529       .  S
C54          C58   1.521       .  S
C56          H57   1.108       .  S
C56          C62   1.554       .  S
C56          C61   1.565       .  S
C56          C63   1.562       .  S
C58          C61   1.369       .  D
C58         C178   1.443       .  S
C59          C62   1.384       .  D
C59         C185   1.454       .  S
C60          C63   1.379       .  D
C60         C186   1.440       .  S
C61         C175   1.509       .  S
C62         C171   1.504       .  S
C63         C166   1.519       .  S
C64          H65   1.112       .  S
C64          C70   1.535       .  S
C64          C69   1.538       .  S
C64          C68   1.532       .  S
C66          H67   1.113       .  S
C66          C72   1.525       .  S
C66          C71   1.530       .  S
C66          C73   1.525       .  S
C68          C71   1.368       .  D
C68         C147   1.484       .  S
C69          C72   1.374       .  D
C69         C150   1.477       .  S
C70          C73   1.372       .  D
C70         C142   1.468       .  S
C71         C158   1.428       .  S
C72         C154   1.442       .  S
C73         C162   1.446       .  S
C74         H549   1.113       .  S
C74         C317   1.519   1_655  S
C74         C553   1.526       .  S
C74         C789   1.522       .  S
H75         C548   1.113       .  S
C76         H314   1.107       .  S
C76         C556   1.545   1_455  S
C76         C792   1.547   1_455  S
C76         C320   1.554       .  S
H77         C313   1.106       .  S
C78         C785   1.526       .  S
C78          C81   1.375       .  D
C78         C157   1.441       .  S
C79         C548   1.528       .  S
C79          C82   1.378       .  D
C79         C165   1.445       .  S
C80         C311   1.512   1_445  S
C80          C83   1.368       .  D
C80         C161   1.431       .  S
C81         C787   1.544       .  S
C81         C139   1.492       .  S
C82         C550   1.542       .  S
C82         C134   1.490       .  S
C83         C313   1.555       .  S
C83         C130   1.494       .  S
Zn84         O88   1.971       .  S
Zn84         O89   2.049       .  S
Zn84         O93   2.048       .  S
Zn84        O100   2.012       .  S
Zn85         O88   1.968       .  S
Zn85         O90   2.045       .  S
Zn85         O92   2.023       .  S
Zn85         O96   2.020       .  S
Zn86         O88   1.956       .  S
Zn86         O91   2.008       .  S
Zn86         O94   2.004       .  S
Zn86         O97   1.997       .  S
Zn87         O88   1.971       .  S
Zn87         O95   2.045       .  S
Zn87         O98   2.023       .  S
Zn87         O99   2.038       .  S
O89         C101   1.277       .  A
O90         C102   1.275       .  A
O91         C103   1.272       .  A
O92         C101   1.274       .  A
O93         C103   1.278       .  A
O94         C102   1.269       .  A
O95         C104   1.275       .  A
O96         C105   1.276       .  A
O97         C104   1.271       .  A
O98         C105   1.274       .  A
O99         C106   1.277       .  A
O100        C106   1.270       .  A
C101        C203   1.477       .  S
C102        C680   1.475       .  S
C103        C447   1.473   1_545  S
C104        C138   1.481       .  S
C105        C135   1.478       .  S
C106        C131   1.483       .  S
Zn107       O348   1.970       .  S
Zn107       O116   2.011       .  S
Zn107       O123   2.034   1_554  S
Zn107       O349   2.028       .  S
Zn108       O585   1.974   1_454  S
Zn108       O113   2.035       .  S
Zn108       O119   2.058   1_554  S
Zn108       O589   2.040   1_455  S
Zn109       O822   1.964   1_455  S
Zn109       O120   1.997   1_554  S
Zn109       O588   2.006   1_455  S
Zn109       O354   2.020       .  S
Zn110       O111   1.956   1_565  S
Zn110       O829   2.048       .  S
Zn110       O595   2.078   1_565  S
Zn110       O359   2.070       .  S
O111       Zn344   1.949   1_546  S
O111       Zn582   1.966   1_556  S
O111       Zn820   1.969   1_546  S
O112       Zn344   1.988   1_545  S
O112        C124   1.269       .  A
O113        C125   1.276       .  A
O114       Zn583   1.990       .  S
O114        C126   1.269       .  A
O115       Zn582   2.030       .  S
O115        C124   1.276       .  A
O116        C126   1.276       .  A
O117       Zn346   2.034   1_545  S
O117        C125   1.277       .  A
O118       Zn821   2.112   1_455  S
O118        C127   1.286       .  A
O119        C128   1.277       .  A
O120        C127   1.270       .  A
O121       Zn584   2.021   1_445  S
O121        C128   1.273       .  A
O122       Zn347   2.091       .  S
O122        C129   1.285       .  A
O123        C129   1.275       .  A
C124        C151   1.467       .  S
C125        C146   1.479       .  S
C126        C143   1.464       .  S
C127        C174   1.492       .  S
C128        C170   1.486       .  S
C129        C167   1.496       .  S
C130        C131   1.341       .  D
C130        H132   1.086       .  S
C131        H133   1.084       .  S
C134        C135   1.345       .  D
C134        H136   1.086       .  S
C135        H137   1.081       .  S
C138        C139   1.350       .  D
C138        H140   1.081       .  S
C139        H141   1.086       .  S
C142        C143   1.335       .  D
C142        H144   1.086       .  S
C143        H145   1.087       .  S
C146        C147   1.344       .  D
C146        H148   1.087       .  S
C147        H149   1.086       .  S
C150        C151   1.338       .  D
C150        H152   1.086       .  S
C151        H153   1.087       .  S
C154        C155   1.204       .  T
C155        C156   1.409       .  S
C156        C157   1.204       .  T
C158        C159   1.196       .  T
C159        C160   1.396       .  S
C160        C161   1.196       .  T
C162        C163   1.206       .  T
C163        C164   1.413       .  S
C164        C165   1.207       .  T
C166        C167   1.363       .  D
C166        H168   1.086       .  S
C167        H169   1.077       .  S
C170        C171   1.349       .  D
C170        H172   1.080       .  S
C171        H173   1.086       .  S
C174        C175   1.343       .  D
C174        H176   1.084       .  S
C175        H177   1.086       .  S
C178        C179   1.204       .  T
C179        C180   1.409       .  S
C180        C181   1.204       .  T
C182        C183   1.211       .  T
C183        C184   1.422       .  S
C184        C185   1.212       .  T
C186        C187   1.204       .  T
C187        C188   1.409       .  S
C188        C189   1.203       .  T
C190        C191   1.338       .  D
C190        H192   1.087       .  S
C191        H193   1.087       .  S
C194        C195   1.344       .  D
C194        H196   1.087       .  S
C195        H197   1.086       .  S
C198        C199   1.345       .  D
C198        H200   1.086       .  S
C199        H201   1.086       .  S
C202        C203   1.348       .  D
C202        H204   1.086       .  S
C203        H205   1.086       .  S
C206        C207   1.342       .  D
C206        C576   1.474   1_455  S
C206        H682   1.086       .  S
C207        H209   1.086       .  S
H208        C680   1.087       .  S
C210        C211   1.342       .  D
C210        C340   1.473       .  S
C210        H449   1.086       .  S
C211        H213   1.087       .  S
H212        C447   1.086       .  S
C214        C215   1.335       .  D
C214        H216   1.083       .  S
C215        H217   1.087       .  S
C218        C219   1.334       .  D
C218        C512   1.459       .  S
C218        H694   1.084       .  S
C219        H221   1.087       .  S
H220        C692   1.084       .  S
C222        C223   1.337       .  D
C222        C276   1.462   1_545  S
C222        H461   1.084       .  S
C223        H225   1.087       .  S
H224        C459   1.084       .  S
C226        C227   1.199       .  T
C227        C228   1.401       .  S
C228        C229   1.199       .  T
C230        C231   1.198       .  T
C231        C469   1.399   1_545  S
C232        C233   1.203       .  T
C232        C468   1.407       .  S
C234        C235   1.201       .  T
C235        C710   1.404       .  S
C236        C237   1.203       .  T
C236        C709   1.407   1_455  S
C238        H239   1.112       .  S
C238        C244   1.530       .  S
C238        C243   1.531       .  S
C238        C242   1.531       .  S
C240        H241   1.113       .  S
C240        C246   1.526       .  S
C240        C245   1.527       .  S
C240        C247   1.526       .  S
C242        C245   1.376       .  D
C242        C456   1.479       .  S
C243        C246   1.376       .  D
C243        C460   1.480       .  S
C244        C247   1.378       .  D
C244        C452   1.477       .  S
C245        C471   1.444       .  S
C246        C467   1.439       .  S
C247        C463   1.443       .  S
C248        H249   1.113       .  S
C248        C254   1.523       .  S
C248        C253   1.525       .  S
C248        C252   1.521       .  S
C250        H251   1.111       .  S
C250        C256   1.544       .  S
C250        C255   1.551       .  S
C250        C257   1.546       .  S
C252        C255   1.372       .  D
C252        C466   1.443       .  S
C253        C256   1.367       .  D
C253        C474   1.439       .  S
C254        C257   1.373       .  D
C254        C470   1.431       .  S
C255        C439   1.487       .  S
C256        C444   1.483       .  S
C257        C448   1.489       .  S
Zn258       O262   1.966       .  S
Zn258       O263   2.045       .  S
Zn258       O267   2.061       .  S
Zn258       O274   2.057       .  S
Zn259       O262   1.945       .  S
Zn259       O264   1.981       .  S
Zn259       O266   1.964       .  S
Zn259       O270   1.964       .  S
Zn260       O262   1.940       .  S
Zn260       O265   2.006       .  S
Zn260       O268   1.997       .  S
Zn260       O271   1.992       .  S
Zn261       O262   1.959       .  S
Zn261       O269   2.037       .  S
Zn261       O272   2.033       .  S
Zn261       O273   2.019       .  S
O263        C275   1.277       .  A
O264        C276   1.265       .  A
O265        C277   1.272       .  A
O266        C275   1.265       .  A
O267        C277   1.280       .  A
O268        C276   1.272       .  A
O269        C278   1.276       .  A
O270        C279   1.264       .  A
O271        C278   1.268       .  A
O272        C279   1.276       .  A
O273        C280   1.274       .  A
O274        C280   1.279       .  A
C275        C929   1.465   1_455  S
C277        C435   1.476       .  S
C278        C427   1.472       .  S
C279        C451   1.463       .  S
C280        C431   1.478       .  S
C281        H282   1.111       .  S
C281        C287   1.541       .  S
C281        C522   1.544   1_455  S
C283        H284   1.113       .  S
C283        C525   1.526       .  S
C283        C290   1.529   1_655  S
C285        C518   1.538       .  S
C285        C288   1.363       .  D
C285        C428   1.477       .  S
C286        C289   1.374       .  D
C286        C436   1.489       .  S
C287        C290   1.372       .  D
C287        C432   1.489       .  S
C288        C520   1.524   1_565  S
C288        C426   1.436       .  S
C289        C418   1.437       .  S
C290        C419   1.438       .  S
C291        H292   1.114       .  S
C291        C297   1.516       .  S
C291        C296   1.522       .  S
C291        C295   1.524       .  S
C293        H294   1.109       .  S
C293        C299   1.556       .  S
C293        C298   1.549       .  S
C293        C300   1.556       .  S
C295        C298   1.379       .  D
C295        C415   1.437       .  S
C296        C299   1.379       .  D
C296        C422   1.437       .  S
C297        C300   1.365       .  D
C297        C423   1.438       .  S
C298        C412   1.503       .  S
C299        C408   1.503       .  S
C300        C403   1.496       .  S
C301        H302   1.112       .  S
C301        C307   1.539       .  S
C301        C306   1.533       .  S
C301        C305   1.533       .  S
C303        H304   1.113       .  S
C303        C309   1.526       .  S
C303        C308   1.528       .  S
C303        C310   1.528       .  S
C305        C308   1.369       .  D
C305        C384   1.474       .  S
C306        C309   1.369       .  D
C306        C387   1.467       .  S
C307        C310   1.370       .  D
C307        C379   1.479       .  S
C308        C395   1.439       .  S
C309        C391   1.438       .  S
C310        C399   1.437       .  S
C311        H786   1.114       .  S
C311        C790   1.517       .  S
C311        C552   1.513   1_565  S
H312        C785   1.114       .  S
C313        C793   1.548   1_445  S
C313        C555   1.554   1_455  S
C315        C548   1.524       .  S
C315        C318   1.374       .  D
C315        C394   1.438       .  S
C316        C785   1.526   1_565  S
C316        C319   1.376       .  D
C316        C402   1.437       .  S
C317        C320   1.369       .  D
C317        C398   1.441       .  S
C318        C550   1.545       .  S
C318        C376   1.491       .  S
C319        C787   1.543   1_565  S
C319        C371   1.498       .  S
C320        C367   1.495       .  S
Zn321       O325   1.966       .  S
Zn321       O326   2.034       .  S
Zn321       O330   2.035       .  S
Zn321       O337   2.001       .  S
Zn322       O325   1.971       .  S
Zn322       O327   2.051       .  S
Zn322       O329   2.033       .  S
Zn322       O333   2.037       .  S
Zn323       O325   1.954       .  S
Zn323       O328   2.011       .  S
Zn323       O331   1.991       .  S
Zn323       O334   1.986       .  S
Zn324       O325   1.973       .  S
Zn324       O332   2.046       .  S
Zn324       O335   2.037       .  S
Zn324       O336   2.042       .  S
O326        C338   1.276       .  A
O327        C339   1.277       .  A
O328        C340   1.271       .  A
O329        C338   1.275       .  A
O330        C340   1.276       .  A
O331        C339   1.268       .  A
O332        C341   1.276       .  A
O333        C342   1.277       .  A
O334        C341   1.270       .  A
O335        C342   1.277       .  A
O336        C343   1.277       .  A
O337        C343   1.269       .  A
C338        C440   1.477       .  S
C339        C917   1.473       .  S
C341        C375   1.478       .  S
C342        C372   1.484       .  S
C343        C368   1.479       .  S
Zn344       O353   1.997       .  S
Zn344       O360   1.987   1_554  S
Zn345       O822   1.961   1_455  S
Zn345       O350   1.990       .  S
Zn345       O826   1.982   1_455  S
Zn345       O356   1.994   1_554  S
Zn346       O585   1.971   1_464  S
Zn346       O825   2.047       .  S
Zn346       O357   2.058   1_554  S
Zn347       O348   1.976   1_556  S
Zn347       O592   2.123       .  S
Zn347       O832   2.105       .  S
O348       Zn819   1.947       .  S
O348       Zn583   1.949       .  S
O349        C361   1.271       .  A
O350        C362   1.266       .  A
O351       Zn820   2.046       .  S
O351        C363   1.274       .  A
O352       Zn819   1.972       .  S
O352        C361   1.268       .  A
O353        C363   1.270       .  A
O354        C362   1.272       .  A
O355       Zn584   2.021   1_455  S
O355        C364   1.274       .  A
O356        C365   1.272       .  A
O357        C364   1.277       .  A
O358       Zn821   2.068   1_455  S
O358        C365   1.281       .  A
O359        C366   1.281       .  A
O360        C366   1.268       .  A
C361        C388   1.469       .  S
C362        C383   1.466       .  S
C363        C380   1.478       .  S
C364        C411   1.484       .  S
C365        C407   1.484       .  S
C366        C404   1.481       .  S
C367        C368   1.341       .  D
C367        H369   1.086       .  S
C368        H370   1.083       .  S
C371        C372   1.349       .  D
C371        H373   1.086       .  S
C372        H374   1.081       .  S
C375        C376   1.350       .  D
C375        H377   1.081       .  S
C376        H378   1.086       .  S
C379        C380   1.344       .  D
C379        H381   1.086       .  S
C380        H382   1.086       .  S
C383        C384   1.336       .  D
C383        H385   1.087       .  S
C384        H386   1.086       .  S
C387        C388   1.341       .  D
C387        H389   1.086       .  S
C388        H390   1.087       .  S
C391        C392   1.202       .  T
C392        C393   1.406       .  S
C393        C394   1.202       .  T
C395        C396   1.202       .  T
C396        C397   1.406       .  S
C397        C398   1.202       .  T
C399        C400   1.202       .  T
C400        C401   1.406       .  S
C401        C402   1.202       .  T
C403        C404   1.337       .  D
C403        H405   1.086       .  S
C404        H406   1.084       .  S
C407        C408   1.356       .  D
C407        H409   1.076       .  S
C408        H410   1.086       .  S
C411        C412   1.349       .  D
C411        H413   1.081       .  S
C412        H414   1.086       .  S
C415        C416   1.202       .  T
C416        C417   1.405       .  S
C417        C418   1.201       .  T
C419        C420   1.202       .  T
C420        C421   1.406       .  S
C421        C422   1.203       .  T
C423        C424   1.200       .  T
C424        C425   1.403       .  S
C425        C426   1.200       .  T
C427        C428   1.334       .  D
C427        H429   1.087       .  S
C428        H430   1.087       .  S
C431        C432   1.344       .  D
C431        H433   1.086       .  S
C432        H434   1.086       .  S
C435        C436   1.342       .  D
C435        H437   1.086       .  S
C436        H438   1.086       .  S
C439        C440   1.347       .  D
C439        H441   1.086       .  S
C440        H442   1.087       .  S
C443        C444   1.337       .  D
C443        C813   1.472   1_455  S
C443        H919   1.087       .  S
C444        H446   1.087       .  S
H445        C917   1.087       .  S
C447        C448   1.344       .  D
C448        H450   1.086       .  S
C451        C452   1.334       .  D
C451        H453   1.083       .  S
C452        H454   1.087       .  S
C455        C456   1.335       .  D
C455        C749   1.465       .  S
C455        H931   1.084       .  S
C456        H458   1.086       .  S
H457        C929   1.084   1_455  S
C459        C460   1.338       .  D
C460        H462   1.087       .  S
C463        C464   1.205       .  T
C464        C465   1.411       .  S
C465        C466   1.205       .  T
C467        C468   1.203       .  T
C469        C470   1.197       .  T
C471        C472   1.205       .  T
C472        C947   1.411       .  S
C473        C474   1.202       .  T
C473        C946   1.407   1_455  S
C475        H476   1.113       .  S
C475        C481   1.528       .  S
C475        C480   1.527       .  S
C475        C479   1.528       .  S
C477        H478   1.113       .  S
C477        C483   1.527       .  S
C477        C482   1.527       .  S
C477        C484   1.527       .  S
C479        C482   1.376       .  D
C479        C693   1.480       .  S
C480        C483   1.373       .  D
C480        C697   1.470       .  S
C481        C484   1.377       .  D
C481        C689   1.478       .  S
C482        C708   1.439       .  S
C483        C704   1.439       .  S
C484        C700   1.440       .  S
C485        H486   1.113       .  S
C485        C491   1.524       .  S
C485        C490   1.526       .  S
C485        C489   1.524       .  S
C487        H488   1.111       .  S
C487        C493   1.541       .  S
C487        C492   1.549       .  S
C487        C494   1.548       .  S
C489        C492   1.373       .  D
C489        C703   1.440       .  S
C490        C493   1.366       .  D
C490        C711   1.437       .  S
C491        C494   1.376       .  D
C491        C707   1.443       .  S
C492        C676   1.492       .  S
C493        C681   1.484       .  S
C494        C685   1.486       .  S
Zn495       O499   1.947       .  S
Zn495       O500   2.020       .  S
Zn495       O504   2.015       .  S
Zn495       O511   2.020       .  S
Zn496       O499   1.929       .  S
Zn496       O501   1.970       .  S
Zn496       O503   1.961       .  S
Zn496       O507   1.964       .  S
Zn497       O499   1.944       .  S
Zn497       O502   2.044       .  S
Zn497       O505   2.033       .  S
Zn497       O508   2.029       .  S
Zn498       O499   1.951       .  S
Zn498       O506   2.034       .  S
Zn498       O509   2.043       .  S
Zn498       O510   2.037       .  S
O500        C512   1.274       .  A
O501        C513   1.265       .  A
O502        C514   1.277       .  A
O503        C512   1.265       .  A
O504        C514   1.274       .  A
O505        C513   1.277       .  A
O506        C515   1.276       .  A
O507        C516   1.264       .  A
O508        C515   1.277       .  A
O509        C516   1.278       .  A
O510        C517   1.278       .  A
O511        C517   1.274       .  A
C513        C933   1.467       .  S
C514        C672   1.478       .  S
C515        C664   1.478       .  S
C516        C688   1.467       .  S
C517        C668   1.476       .  S
C518        H519   1.112       .  S
C518        C524   1.545   1_565  S
C518        C760   1.535       .  S
C520        H521   1.113       .  S
C520        C763   1.529   1_545  S
C520        C527   1.524       .  S
C522        C525   1.372       .  D
C522        C665   1.486       .  S
C523        C755   1.544       .  S
C523        C526   1.371       .  D
C523        C673   1.484       .  S
C524        C527   1.375       .  D
C524        C669   1.484       .  S
C525        C663   1.440       .  S
C526        C757   1.525       .  S
C526        C655   1.441       .  S
C527        C656   1.442       .  S
C528        H529   1.114       .  S
C528        C534   1.515       .  S
C528        C533   1.521       .  S
C528        C532   1.515       .  S
C530        H531   1.107       .  S
C530        C536   1.570       .  S
C530        C535   1.573       .  S
C530        C537   1.574       .  S
C532        C535   1.371       .  D
C532        C652   1.443       .  S
C533        C536   1.383       .  D
C533        C659   1.442       .  S
C534        C537   1.371       .  D
C534        C660   1.442       .  S
C535        C649   1.513       .  S
C536        C645   1.519       .  S
C537        C640   1.513       .  S
C538        H539   1.112       .  S
C538        C544   1.542       .  S
C538        C543   1.538       .  S
C538        C542   1.540       .  S
C540        H541   1.113       .  S
C540        C546   1.527       .  S
C540        C545   1.523       .  S
C540        C547   1.521       .  S
C542        C545   1.373       .  D
C542        C621   1.474       .  S
C543        C546   1.370       .  D
C543        C624   1.487       .  S
C544        C547   1.371       .  D
C544        C616   1.482       .  S
C545        C632   1.445       .  S
C546        C628   1.433       .  S
C547        C636   1.435       .  S
C548        C791   1.529       .  S
C550        H788   1.112       .  S
C550        C794   1.541       .  S
H551        C787   1.112       .  S
C552        C555   1.368       .  D
C552        C631   1.435       .  S
C553        C556   1.377       .  D
C553        C639   1.433       .  S
C554        C785   1.528       .  S
C554        C557   1.380       .  D
C554        C635   1.445       .  S
C555        C613   1.489       .  S
C556        C608   1.502       .  S
C557        C787   1.547       .  S
C557        C604   1.499       .  S
Zn558       O562   1.974       .  S
Zn558       O563   2.055       .  S
Zn558       O567   2.053       .  S
Zn558       O574   2.039       .  S
Zn559       O562   1.964       .  S
Zn559       O564   2.035       .  S
Zn559       O566   2.029       .  S
Zn559       O570   2.044       .  S
Zn560       O562   1.961       .  S
Zn560       O565   2.004       .  S
Zn560       O568   2.010       .  S
Zn560       O571   2.003       .  S
Zn561       O562   1.960       .  S
Zn561       O569   2.036       .  S
Zn561       O572   2.029       .  S
Zn561       O573   2.035       .  S
O563        C575   1.278       .  A
O564        C576   1.276       .  A
O565        C577   1.272       .  A
O566        C575   1.275       .  A
O567        C577   1.277       .  A
O568        C576   1.272       .  A
O569        C578   1.276       .  A
O570        C579   1.276       .  A
O571        C578   1.269       .  A
O572        C579   1.275       .  A
O573        C580   1.276       .  A
O574        C580   1.278       .  A
C575        C677   1.482       .  S
C577        C921   1.478   1_545  S
C578        C612   1.478       .  S
C579        C609   1.484       .  S
C580        C605   1.486       .  S
Zn581       O822   1.966       .  S
Zn581       O823   2.039       .  S
Zn581       O590   2.026       .  S
Zn581       O597   2.005   1_554  S
Zn582       O587   2.012       .  S
Zn582       O593   2.050   1_554  S
Zn583       O828   2.003       .  S
Zn583       O594   2.000   1_554  S
Zn584       O585   1.941   1_565  S
Zn584       O833   2.012       .  S
O585       Zn818   1.971   1_546  S
O586       Zn818   2.027   1_545  S
O586        C598   1.275       .  A
O587        C599   1.273       .  A
O588        C600   1.271       .  A
O589        C598   1.277       .  A
O590        C600   1.275       .  A
O591       Zn820   2.023   1_545  S
O591        C599   1.277       .  A
O592        C601   1.288       .  A
O593        C602   1.276       .  A
O594        C601   1.270       .  A
O595        C602   1.282       .  A
O596       Zn821   2.121       .  S
O596        C603   1.288       .  A
O597        C603   1.271       .  A
C598        C625   1.479       .  S
C599        C620   1.471       .  S
C600        C617   1.469       .  S
C601        C648   1.499       .  S
C602        C644   1.497       .  S
C603        C641   1.500       .  S
C604        C605   1.348       .  D
C604        H606   1.086       .  S
C605        H607   1.081       .  S
C608        C609   1.350       .  D
C608        H610   1.086       .  S
C609        H611   1.081       .  S
C612        C613   1.340       .  D
C612        H614   1.084       .  S
C613        H615   1.086       .  S
C616        C617   1.342       .  D
C616        H618   1.087       .  S
C617        H619   1.086       .  S
C620        C621   1.337       .  D
C620        H622   1.087       .  S
C621        H623   1.086       .  S
C624        C625   1.344       .  D
C624        H626   1.086       .  S
C625        H627   1.087       .  S
C628        C629   1.199       .  T
C629        C630   1.401       .  S
C630        C631   1.199       .  T
C632        C633   1.206       .  T
C633        C634   1.414       .  S
C634        C635   1.207       .  T
C636        C637   1.200       .  T
C637        C638   1.402       .  S
C638        C639   1.200       .  T
C640        C641   1.343       .  D
C640        H642   1.086       .  S
C641        H643   1.085       .  S
C644        C645   1.362       .  D
C644        H646   1.078       .  S
C645        H647   1.086       .  S
C648        C649   1.342       .  D
C648        H650   1.085       .  S
C649        H651   1.086       .  S
C652        C653   1.203       .  T
C653        C654   1.408       .  S
C654        C655   1.203       .  T
C656        C657   1.205       .  T
C657        C658   1.411       .  S
C658        C659   1.205       .  T
C660        C661   1.203       .  T
C661        C662   1.408       .  S
C662        C663   1.203       .  T
C664        C665   1.345       .  D
C664        H666   1.086       .  S
C665        H667   1.086       .  S
C668        C669   1.341       .  D
C668        H670   1.086       .  S
C669        H671   1.086       .  S
C672        C673   1.347       .  D
C672        H674   1.087       .  S
C673        H675   1.086       .  S
C676        C677   1.347       .  D
C676        H678   1.086       .  S
C677        H679   1.087       .  S
C680        C681   1.338       .  D
C681        H683   1.087       .  S
C684        C685   1.341       .  D
C684        C814   1.474       .  S
C684        H923   1.086       .  S
C685        H687   1.086       .  S
H686        C921   1.087       .  S
C688        C689   1.334       .  D
C688        H690   1.084       .  S
C689        H691   1.087       .  S
C692        C693   1.336       .  D
C693        H695   1.087       .  S
C696        C697   1.336       .  D
C696        C750   1.463   1_545  S
C696        H935   1.084   1_545  S
C697        H699   1.087       .  S
H698        C933   1.085       .  S
C700        C701   1.203       .  T
C701        C702   1.408       .  S
C702        C703   1.203       .  T
C704        C705   1.203       .  T
C705        C943   1.407   1_545  S
C706        C707   1.205       .  T
C706        C942   1.411       .  S
C708        C709   1.203       .  T
C710        C711   1.200       .  T
C712        H713   1.112       .  S
C712        C718   1.530       .  S
C712        C717   1.530       .  S
C712        C716   1.527       .  S
C714        H715   1.113       .  S
C714        C720   1.527       .  S
C714        C719   1.528       .  S
C714        C721   1.526       .  S
C716        C719   1.376       .  D
C716        C930   1.481       .  S
C717        C720   1.376       .  D
C717        C934   1.476       .  S
C718        C721   1.377       .  D
C718        C926   1.476       .  S
C719        C945   1.439       .  S
C720        C941   1.442       .  S
C721        C937   1.444       .  S
C722        H723   1.113       .  S
C722        C728   1.525       .  S
C722        C727   1.524       .  S
C722        C726   1.530       .  S
C724        H725   1.111       .  S
C724        C730   1.550       .  S
C724        C729   1.549       .  S
C724        C731   1.545       .  S
C726        C729   1.374       .  D
C726        C940   1.444       .  S
C727        C730   1.369       .  D
C727        C948   1.445       .  S
C728        C731   1.370       .  D
C728        C944   1.439       .  S
C729        C913   1.496       .  S
C730        C918   1.485       .  S
C731        C922   1.483       .  S
Zn732       O736   1.943       .  S
Zn732       O737   2.036       .  S
Zn732       O741   2.023       .  S
Zn732       O748   2.009       .  S
Zn733       O736   1.936       .  S
Zn733       O738   1.981       .  S
Zn733       O740   1.967       .  S
Zn733       O744   1.959       .  S
Zn734       O736   1.930       .  S
Zn734       O739   2.014       .  S
Zn734       O742   1.998       .  S
Zn734       O745   1.983       .  S
Zn735       O736   1.960       .  S
Zn735       O743   2.078       .  S
Zn735       O746   2.041       .  S
Zn735       O747   2.058       .  S
O737        C749   1.276       .  A
O738        C750   1.265       .  A
O739        C751   1.272       .  A
O740        C749   1.266       .  A
O741        C751   1.276       .  A
O742        C750   1.273       .  A
O743        C752   1.281       .  A
O744        C753   1.265       .  A
O745        C752   1.269       .  A
O746        C753   1.278       .  A
O747        C754   1.280       .  A
O748        C754   1.273       .  A
C751        C909   1.474       .  S
C752        C901   1.475       .  S
C753        C925   1.463       .  S
C754        C905   1.475       .  S
C755        H756   1.111       .  S
C755        C761   1.548       .  S
C757        H758   1.113       .  S
C757        C764   1.523       .  S
C759        C762   1.368       .  D
C759        C902   1.491       .  S
C760        C763   1.372       .  D
C760        C910   1.476       .  S
C761        C764   1.373       .  D
C761        C906   1.490       .  S
C762        C900   1.437       .  S
C763        C892   1.436       .  S
C764        C893   1.435       .  S
C765        H766   1.114       .  S
C765        C771   1.520       .  S
C765        C770   1.515       .  S
C765        C769   1.523       .  S
C767        H768   1.107       .  S
C767        C773   1.563       .  S
C767        C772   1.552       .  S
C767        C774   1.546       .  S
C769        C772   1.378       .  D
C769        C889   1.436       .  S
C770        C773   1.367       .  D
C770        C896   1.437       .  S
C771        C774   1.376       .  D
C771        C897   1.437       .  S
C772        C886   1.504       .  S
C773        C882   1.501       .  S
C774        C877   1.495       .  S
C775        H776   1.112       .  S
C775        C781   1.545       .  S
C775        C780   1.535       .  S
C775        C779   1.532       .  S
C777        H778   1.113       .  S
C777        C783   1.528       .  S
C777        C782   1.530       .  S
C777        C784   1.525       .  S
C779        C782   1.371       .  D
C779        C858   1.473       .  S
C780        C783   1.371       .  D
C780        C861   1.478       .  S
C781        C784   1.373       .  D
C781        C853   1.488       .  S
C782        C869   1.442       .  S
C783        C865   1.442       .  S
C784        C873   1.437       .  S
C789        C792   1.377       .  D
C789        C868   1.442       .  S
C790        C793   1.380       .  D
C790        C876   1.438       .  S
C791        C794   1.378       .  D
C791        C872   1.442       .  S
C792        C850   1.490       .  S
C793        C845   1.492       .  S
C794        C841   1.499       .  S
Zn795       O799   1.978       .  S
Zn795       O800   2.072       .  S
Zn795       O804   2.058       .  S
Zn795       O811   2.058       .  S
Zn796       O799   1.974       .  S
Zn796       O801   2.051       .  S
Zn796       O803   2.033       .  S
Zn796       O807   2.043       .  S
Zn797       O799   1.956       .  S
Zn797       O802   2.000       .  S
Zn797       O805   1.989       .  S
Zn797       O808   2.008       .  S
Zn798       O799   1.947       .  S
Zn798       O806   2.020       .  S
Zn798       O809   1.995       .  S
Zn798       O810   2.006       .  S
O800        C812   1.280       .  A
O801        C813   1.277       .  A
O802        C814   1.272       .  A
O803        C812   1.276       .  A
O804        C814   1.280       .  A
O805        C813   1.268       .  A
O806        C815   1.271       .  A
O807        C816   1.276       .  A
O808        C815   1.270       .  A
O809        C816   1.271       .  A
O810        C817   1.272       .  A
O811        C817   1.278       .  A
C812        C914   1.487       .  S
C815        C849   1.473       .  S
C816        C846   1.471       .  S
C817        C842   1.480       .  S
Zn818       O827   2.031       .  S
Zn818       O834   2.034   1_554  S
Zn819       O824   2.001       .  S
Zn819       O830   1.961   1_554  S
Zn820       O831   2.036   1_554  S
Zn821       O822   1.984   1_556  S
O823        C835   1.276       .  A
O824        C836   1.267       .  A
O825        C837   1.277   1_455  A
O826        C835   1.267       .  A
O827        C837   1.275       .  A
O828        C836   1.271       .  A
O829        C838   1.279       .  A
O830        C839   1.266       .  A
O831        C838   1.277       .  A
O832        C839   1.286       .  A
O833        C840   1.273       .  A
O834        C840   1.274       .  A
C835        C862   1.466       .  S
C836        C857   1.468       .  S
C837        C854   1.484       .  S
C838        C885   1.486       .  S
C839        C881   1.481       .  S
C840        C878   1.474       .  S
C841        C842   1.345       .  D
C841        H843   1.086       .  S
C842        H844   1.081       .  S
C845        C846   1.343       .  D
C845        H847   1.086       .  S
C846        H848   1.081       .  S
C849        C850   1.347       .  D
C849        H851   1.081       .  S
C850        H852   1.086       .  S
C853        C854   1.346       .  D
C853        H855   1.086       .  S
C854        H856   1.087       .  S
C857        C858   1.337       .  D
C857        H859   1.087       .  S
C858        H860   1.087       .  S
C861        C862   1.335       .  D
C861        H863   1.087       .  S
C862        H864   1.087       .  S
C865        C866   1.204       .  T
C866        C867   1.409       .  S
C867        C868   1.204       .  T
C869        C870   1.204       .  T
C870        C871   1.410       .  S
C871        C872   1.204       .  T
C873        C874   1.202       .  T
C874        C875   1.407       .  S
C875        C876   1.202       .  T
C877        C878   1.347       .  D
C877        H879   1.086       .  S
C878        H880   1.082       .  S
C881        C882   1.336       .  D
C881        H883   1.083       .  S
C882        H884   1.086       .  S
C885        C886   1.352       .  D
C885        H887   1.080       .  S
C886        H888   1.086       .  S
C889        C890   1.202       .  T
C890        C891   1.405       .  S
C891        C892   1.201       .  T
C893        C894   1.199       .  T
C894        C895   1.402       .  S
C895        C896   1.200       .  T
C897        C898   1.201       .  T
C898        C899   1.404       .  S
C899        C900   1.201       .  T
C901        C902   1.338       .  D
C901        H903   1.086       .  S
C902        H904   1.087       .  S
C905        C906   1.344       .  D
C905        H907   1.086       .  S
C906        H908   1.086       .  S
C909        C910   1.339       .  D
C909        H911   1.087       .  S
C910        H912   1.087       .  S
C913        C914   1.348       .  D
C913        H915   1.086       .  S
C914        H916   1.087       .  S
C917        C918   1.336       .  D
C918        H920   1.087       .  S
C921        C922   1.347       .  D
C922        H924   1.086       .  S
C925        C926   1.333       .  D
C925        H927   1.084       .  S
C926        H928   1.087       .  S
C929        C930   1.335       .  D
C930        H932   1.086       .  S
C933        C934   1.335       .  D
C934        H936   1.087       .  S
C937        C938   1.206       .  T
C938        C939   1.412       .  S
C939        C940   1.206       .  T
C941        C942   1.205       .  T
C943        C944   1.202       .  T
C945        C946   1.202       .  T
C947        C948   1.205       .  T
