geometry optimzed in LAMMPS
_audit_creation_date              2020-12-01 
_audit_creation_method            'lammps2cif' 
_symmetry_space_group_name_H-M    'P1' 
_symmetry_Int_Tables_number       1 
_symmetry_cell_setting            triclinic 
loop_ 
_symmetry_equiv_pos_as_xyz 
  x,y,z 
_cell_length_a                    31.06784699 
_cell_length_b                    29.64138795626311 
_cell_length_c                    30.574328638986 
_cell_angle_alpha                 80.53235114757915 
_cell_angle_beta                  79.03967498848235 
_cell_angle_gamma                 92.29041918271008 
loop_ 
_atom_site_label 
_atom_site_type_symbol 
_atom_site_fract_x 
_atom_site_fract_y 
_atom_site_fract_z 
_atom_site_charge 
C1          C  0.35605965  0.18084991  0.41864462     0.03300
C2          C  0.39285248  0.18534199  0.38263479    -0.12800
C3          C  0.39798409  0.15388617  0.35307043     0.00800
C4          C  0.36567486  0.11767176  0.35915690    -0.11400
C5          C  0.32767919  0.11237940  0.39358352     0.03300
C6          C  0.32314951  0.14432642  0.42390955    -0.10800
H7          H  0.41824236  0.21273625  0.37830393     0.08900
H8          H  0.37034296  0.09311981  0.33642743     0.06400
H9          H  0.29475970  0.14069500  0.45129350     0.06300
C10         C  0.37405996  0.41923256  0.12075313     0.03300
C11         C  0.39964763  0.41045053  0.15387734    -0.12800
C12         C  0.42782123  0.37444319  0.15485740     0.00800
C13         C  0.42912035  0.34488188  0.12252701    -0.11400
C14         C  0.40463898  0.35313326  0.08748646     0.03300
C15         C  0.37781050  0.39121080  0.08676881    -0.10800
H16         H  0.39763693  0.43210466  0.17945592     0.08900
H17         H  0.45014183  0.31660227  0.12372192     0.06400
H18         H  0.35767171  0.39721918  0.06140146     0.06300
C19         C  0.08761425  0.38051286  0.33686916     0.03300
C20         C  0.08772599  0.34143654  0.36975435    -0.12800
C21         C  0.11837107  0.33763793  0.39791899     0.00800
C22         C  0.15040966  0.37432605  0.39307858    -0.11400
C23         C  0.15036637  0.41560645  0.36199629     0.03300
C24         C  0.11849069  0.41834022  0.33404670    -0.10800
H25         H  0.06461512  0.31267335  0.37268090     0.08900
H26         H  0.17440636  0.37145167  0.41469875     0.06400
H27         H  0.11849751  0.44922593  0.30957877     0.06300
C28         C  0.11467596  0.11161263  0.08632724     0.03300
C29         C  0.15493361  0.09351377  0.09119483    -0.12800
C30         C  0.16096140  0.06898151  0.13319865     0.00800
C31         C  0.12575216  0.06448628  0.17125970    -0.11400
C32         C  0.08477360  0.08195942  0.16634989     0.03300
C33         C  0.07954871  0.10297602  0.12319595    -0.10800
H34         H  0.18210997  0.09992929  0.06241802     0.08900
H35         H  0.13037243  0.04831447  0.20430542     0.06400
H36         H  0.04880073  0.11745106  0.11907695     0.06300
O37         O  0.43217722  0.15742632  0.27618134    -0.74200
O38         O  0.01222899  0.09969300  0.19570458    -0.74300
O39         O  0.43958153  0.07306720  0.26189612    -0.74300
O40         O  0.50612580  0.18556029  0.20844504    -0.74400
O41         O  0.04911178  0.17422326  0.25921534    -0.74300
O42         O  0.98322522  0.06012118  0.31194678    -0.74300
O43         O  0.05717159  0.08870031  0.24455265    -0.74300
O44         O  0.47458873  0.14474635  0.32752878    -0.74300
Ni45       Ni  0.47115385  0.12959502  0.23379200     1.25400
Ni46       Ni  0.01760770  0.11667075  0.28776518     1.25400
C47         C  0.43760311  0.15490531  0.31695774     0.87900
C48         C  0.04932037  0.08819946  0.20490125     0.87900
C49         C  0.44906513  0.04921741  0.29703478     0.87900
C50         C  0.54069351  0.19655523  0.22254085     0.88100
O51         O  0.14150175  0.15433797  0.01125508    -0.74200
O52         O  0.14883978  0.26907071  0.42874591    -0.74300
O53         O  0.16886993  0.24034789  0.51024902    -0.74300
O54         O  0.11769428  0.18191072  0.42856163    -0.74400
O55         O  0.05369318  0.19191286  0.97153839    -0.74300
O56         O  0.10382314  0.26187672  0.04247965    -0.74300
O57         O  0.08096205  0.28164153  0.46144432    -0.74300
O58         O  0.07903683  0.17324245  0.05090565    -0.74300
Ni59       Ni  0.14665970  0.21057537  0.46834675     1.25400
Ni60       Ni  0.07682246  0.22737673  0.00770649     1.25400
C61         C  0.11106339  0.14713041  0.04690232     0.87900
C62         C  0.11625313  0.29437755  0.43139980     0.87900
C63         C  0.14518179  0.26217560  0.53778299     0.87900
C64         C  0.07567901  0.17855023  0.43689407     0.88100
O65         O  0.33603225  0.48414800  0.09118684    -0.74200
O66         O  0.23456953  0.05588408  0.09983674    -0.74300
O67         O  0.31686970  0.07075173  0.11225661    -0.74300
O68         O  0.25331503  0.97489053  0.08056114    -0.74400
O69         O  0.23206868  0.43818091  0.15195433    -0.74300
O70         O  0.29244399  0.53764241  0.18435370    -0.74300
O71         O  0.20956511  0.02090688  0.17094937    -0.74300
O72         O  0.31449996  0.45306581  0.16398716    -0.74300
Ni73       Ni  0.28648169  0.02258247  0.09356581     1.25400
Ni74       Ni  0.26180414  0.48657445  0.17070736     1.25400
C75         C  0.34027625  0.45424974  0.12539733     0.87900
C76         C  0.20392012  0.04807073  0.13538640     0.87900
C77         C  0.31067801  0.57206456  0.15441175     0.87900
C78         C  0.23313746  0.44111351  0.10980091     0.88100
O79         O  0.48096856  0.40874519  0.18807495    -0.74200
O80         O  0.05541904  0.41453958  0.27444733    -0.74300
O81         O  0.06583338  0.39104633  0.19098463    -0.74300
O82         O  0.96956369  0.42875181  0.27249851    -0.74400
O83         O  0.44601001  0.35608746  0.30284655    -0.74300
O84         O  0.54150666  0.31974914  0.22507044    -0.74300
O85         O  0.03141736  0.34292942  0.30716516    -0.74300
O86         O  0.45830916  0.33592205  0.21770328    -0.74300
Ni87       Ni  0.01858342  0.41351040  0.23044329     1.25400
Ni88       Ni  0.49361449  0.33613084  0.26426102     1.25400
C89         C  0.45762367  0.37210554  0.18810340     0.87900
C90         C  0.05638198  0.37953483  0.30484431     0.87900
C91         C  0.56901455  0.34767042  0.19576442     0.87900
C92         C  0.44211657  0.39876745  0.30055541     0.88100
O93         O  0.16973493  0.49310504  0.37230512    -0.74200
O94         O  0.25226957  0.07980735  0.40358798    -0.74300
O95         O  0.22212189  0.07344797  0.32818240    -0.74300
O96         O  0.20140101  0.00046045  0.44732453    -0.74400
O97         O  0.25778262  0.45971412  0.42529906    -0.74300
O98         O  0.27512484  0.52824522  0.30721942    -0.74300
O99         O  0.30680908  0.03769967  0.37980954    -0.74300
O100        O  0.22438304  0.44925422  0.35340864    -0.74300
Ni101      Ni  0.20911516  0.03808806  0.38856770     1.25400
Ni102      Ni  0.26771400  0.49221725  0.36552397     1.25400
C103        C  0.18302726  0.45516770  0.36111703     0.87900
C104        C  0.29368013  0.07435525  0.39397622     0.87900
C105        C  0.25561677  0.56509232  0.29990893     0.87900
C106        C  0.22623593  0.46785709  0.45556688     0.88100
O107        O  0.43392268  0.22001478  0.00726526    -0.74200
O108        O  0.31904257  0.25131427  0.05200471    -0.74300
O109        O  0.35549141  0.19687418  0.49351077    -0.74300
O110        O  0.39735260  0.27664270  0.06853627    -0.74400
O111        O  0.40356284  0.33605972  0.01224992    -0.74300
O112        O  0.36576415  0.25588496  0.43609847    -0.74300
O113        O  0.32719113  0.30956058  0.49399076    -0.74300
O114        O  0.44302644  0.27980328  0.45105149    -0.74300
Ni115      Ni  0.37652633  0.23442967  0.03271032     1.25400
Ni116      Ni  0.38552247  0.29781017  0.47162259     1.25400
C117        C  0.45200443  0.23939621  0.96700975     0.87900
C118        C  0.30386070  0.28477017  0.52921863     0.87900
C119        C  0.35676900  0.21282182  0.45153857     0.87900
C120        C  0.40302195  0.32029832  0.05425130     0.88100
C121        C  0.24846935  0.39301409  0.05959909    -0.21100
C122        C  0.21426483  0.40519133  0.09120579    -0.09200
C123        C  0.17566879  0.91761068  0.07637610     0.29700
C124        C  0.17879202  0.93715805  0.53091114    -0.21100
C125        C  0.21932622  0.43945093  0.50058614    -0.09200
C126        C  0.25396241  0.41548136  0.51481496     0.29700
F127        F  0.29373577  0.41601393  0.48698042    -0.19700
H128        H  0.27686551  0.37865940  0.07088307     0.18100
H129        H  0.15087308  0.95318782  0.52029457     0.18100
F130        F  0.13925888  0.92298074  0.10691973    -0.19700
C131        C  0.27411662  0.63184778  0.18275618    -0.21100
C132        C  0.31596588  0.61553435  0.17028835    -0.09200
C133        C  0.34277161  0.11326745  0.20230547     0.29700
C134        C  0.32222151  0.10256128  0.24781693    -0.21100
C135        C  0.27592552  0.59881411  0.25975308    -0.09200
C136        C  0.25207810  0.61905324  0.22803301     0.29700
F137        F  0.20767960  0.61938902  0.23878940    -0.19700
H138        H  0.25437182  0.64042004  0.15731279     0.18100
H139        H  0.34174069  0.09081839  0.27256278     0.18100
F140        F  0.38603247  0.10646958  0.19021408    -0.19700
C141        C  0.01088933  0.14019251  0.92707998    -0.21100
C142        C  0.04955662  0.16687636  0.40428702    -0.09200
C143        C  0.04172313  0.20817591  0.37786477     0.29700
C144        C  0.50726758  0.23296931  0.39678174    -0.21100
C145        C  0.47871572  0.21209460  0.43710133    -0.09200
C146        C  0.47623888  0.16353309  0.94772136     0.29700
F147        F  0.44377491  0.13970160  0.98039668    -0.19700
H148        H  0.01230743  0.10404660  0.93964441     0.18100
H149        H  0.50464826  0.26828364  0.38243027     0.18100
F150        F  0.07389715  0.23016743  0.34375116    -0.19700
C151        C  0.23385511  0.27297224  0.08488707    -0.21100
C152        C  0.25819484  0.29346423  0.54222562    -0.09200
C153        C  0.23710824  0.31890394  0.51057195     0.29700
C154        C  0.19284283  0.32512239  0.52290784    -0.21100
C155        C  0.16827652  0.29304377  0.55805404    -0.09200
C156        C  0.18828235  0.27190537  0.09258619     0.29700
F157        F  0.16481930  0.24059688  0.12706380    -0.19700
H158        H  0.24944247  0.25321095  0.10979486     0.18100
H159        H  0.17693989  0.34339841  0.49733233     0.18100
F160        F  0.25844920  0.33677888  0.46777277    -0.19700
C161        C  0.93219391  0.98043484  0.35748891    -0.21100
C162        C  0.42135512  0.00753879  0.31938909    -0.09200
C163        C  0.38977055  0.98920344  0.29816915     0.29700
C164        C  0.37975607  0.44194046  0.30710065    -0.21100
C165        C  0.40645230  0.41499350  0.33105797    -0.09200
C166        C  0.92191025  0.43319566  0.36510034     0.30900
F167        F  0.94045170  0.40575259  0.39535821    -0.19700
H168        H  0.95345086  0.99430629  0.37706978     0.18100
H169        H  0.36217410  0.42711533  0.28485559     0.18100
F170        F  0.37498069  0.01460308  0.26370905    -0.19700
C171        C  0.10640984  0.25225924  0.21315606    -0.21100
C172        C  0.57105265  0.23550732  0.19596402    -0.09200
C173        C  0.56349839  0.25948756  0.15440605     0.29700
C174        C  0.58286830  0.30422899  0.13826191    -0.21100
C175        C  0.60269249  0.32588455  0.16766202    -0.09200
C176        C  0.12526905  0.29705796  0.19548308     0.29700
F177        F  0.15399124  0.31584985  0.21692977    -0.19700
H178        H  0.11638678  0.23305324  0.24241438     0.18100
H179        H  0.57199440  0.32476565  0.11024275     0.18100
F180        F  0.53455049  0.24215221  0.13221967    -0.19700
C181        C  0.35606281  0.18086964  0.91862982     0.03300
C182        C  0.39285750  0.18535957  0.88262195    -0.12800
C183        C  0.39799006  0.15390216  0.85305893     0.00800
C184        C  0.36568025  0.11768893  0.85914429    -0.11400
C185        C  0.32768264  0.11239873  0.89356782     0.03300
C186        C  0.32315179  0.14434691  0.92389301    -0.10800
H187        H  0.41824819  0.21275296  0.87829202     0.08900
H188        H  0.37034981  0.09313578  0.83641619     0.06400
H189        H  0.29476050  0.14071669  0.95127542     0.06300
C190        C  0.37406353  0.41922610  0.62075039     0.03300
C191        C  0.39965588  0.41044838  0.65387056    -0.12800
C192        C  0.42783008  0.37444183  0.65485006     0.00800
C193        C  0.42912654  0.34487765  0.62252295    -0.11400
C194        C  0.40464092  0.35312486  0.58748604     0.03300
C195        C  0.37781029  0.39120085  0.58676910    -0.10800
H196        H  0.39764791  0.43210502  0.67944697     0.08900
H197        H  0.45014905  0.31659877  0.62371760     0.06400
H198        H  0.35766723  0.39720528  0.56140516     0.06300
C199        C  0.08762724  0.38052475  0.83685315     0.03300
C200        C  0.08773741  0.34145072  0.86974135    -0.12800
C201        C  0.11838169  0.33765413  0.89790679     0.00800
C202        C  0.15042129  0.37434230  0.89306369    -0.11400
C203        C  0.15037951  0.41562069  0.86197758     0.03300
C204        C  0.11850452  0.41835195  0.83402747    -0.10800
H205        H  0.06462594  0.31268825  0.87267010     0.08900
H206        H  0.17441757  0.37146982  0.91468486     0.06400
H207        H  0.11851208  0.44923602  0.80955709     0.06300
C208        C  0.11468156  0.11159649  0.58633254     0.03300
C209        C  0.15494105  0.09350323  0.59120124    -0.12800
C210        C  0.16097051  0.06897481  0.63320601     0.00800
C211        C  0.12576150  0.06448036  0.67126742    -0.11400
C212        C  0.08478118  0.08194876  0.66635639     0.03300
C213        C  0.07955424  0.10295783  0.62320087    -0.10800
H214        H  0.18211729  0.09991997  0.56242427     0.08900
H215        H  0.13038320  0.04831276  0.70431403     0.06400
H216        H  0.04880436  0.11742768  0.61908010     0.06300
O217        O  0.43218578  0.15743136  0.77617279    -0.74200
O218        O  0.01223690  0.09968608  0.69570789    -0.74300
O219        O  0.43958941  0.07306788  0.76189992    -0.74300
O220        O  0.50613473  0.18555700  0.70843695    -0.74400
O221        O  0.04911902  0.17422617  0.75921041    -0.74300
O222        O  0.98323165  0.06012634  0.81195108    -0.74300
O223        O  0.05717910  0.08869966  0.74455675    -0.74300
O224        O  0.47459473  0.14475786  0.82752327    -0.74300
Ni225      Ni  0.47116252  0.12959332  0.73378979     1.25400
Ni226      Ni  0.01761472  0.11667500  0.78776493     1.25400
C227        C  0.43761033  0.15491659  0.81694902     0.87900
C228        C  0.04932804  0.08819355  0.70490613     0.87900
C229        C  0.44907281  0.04922152  0.79704045     0.87900
C230        C  0.54070080  0.19655610  0.72253338     0.88100
O231        O  0.14150388  0.15432221  0.51125983    -0.74200
O232        O  0.14884639  0.26908620  0.92873879    -0.74300
O233        O  0.16887116  0.24036292  0.01024440    -0.74300
O234        O  0.11769679  0.18192725  0.92855472    -0.74400
O235        O  0.05369090  0.19189314  0.47154773    -0.74300
O236        O  0.10382162  0.26185770  0.54248823    -0.74300
O237        O  0.08096856  0.28166074  0.96143336    -0.74300
O238        O  0.07903848  0.17322303  0.55091277    -0.74300
Ni239      Ni  0.14666176  0.21059090  0.96834107     1.25400
Ni240      Ni  0.07682033  0.22735725  0.50771565     1.25400
C241        C  0.11106647  0.14711298  0.54690786     0.87900
C242        C  0.11626117  0.29439494  0.93139027     0.87900
C243        C  0.14518302  0.26219292  0.03777627     0.87900
C244        C  0.07568149  0.17856867  0.93688566     0.88100
O245        O  0.33603205  0.48413844  0.59118508    -0.74200
O246        O  0.23457645  0.05587509  0.59984063    -0.74300
O247        O  0.31688032  0.07074424  0.61224870    -0.74300
O248        O  0.25331590  0.97487800  0.58057193    -0.74400
O249        O  0.23207157  0.43817928  0.65197245    -0.74300
O250        O  0.29246203  0.53764526  0.68434961    -0.74300
O251        O  0.20957877  0.02090699  0.67095750    -0.74300
O252        O  0.31450959  0.45306393  0.66398850    -0.74300
Ni253      Ni  0.28648731  0.02257208  0.59356713     1.25400
Ni254      Ni  0.26181527  0.48657493  0.67071440     1.25400
C255        C  0.34028029  0.45424344  0.62539615     0.87900
C256        C  0.20393022  0.04806601  0.63539308     0.87900
C257        C  0.31069223  0.57206488  0.65440216     0.87900
C258        C  0.23313165  0.44110803  0.60982084     0.88100
O259        O  0.48097886  0.40874742  0.68806225    -0.74200
O260        O  0.05543104  0.41454750  0.77443096    -0.74300
O261        O  0.06584398  0.39104873  0.69097056    -0.74300
O262        O  0.96957426  0.42875635  0.77248399    -0.74400
O263        O  0.44602294  0.35609396  0.80283429    -0.74300
O264        O  0.54151865  0.31975378  0.72506094    -0.74300
O265        O  0.03143056  0.34293804  0.80715268    -0.74300
O266        O  0.45832145  0.33592442  0.71769376    -0.74300
Ni267      Ni  0.01859439  0.41351441  0.73042870     1.25400
Ni268      Ni  0.49362714  0.33613679  0.76425008     1.25400
C269        C  0.45763453  0.37210674  0.68809317     0.87900
C270        C  0.05639478  0.37954425  0.80482930     0.87900
C271        C  0.56902525  0.34767384  0.69575262     0.87900
C272        C  0.44212843  0.39877375  0.80054179     0.88100
O273        O  0.16974425  0.49312060  0.87228453    -0.74200
O274        O  0.25227333  0.07982510  0.90357045    -0.74300
O275        O  0.22212556  0.07346633  0.82816440    -0.74300
O276        O  0.20140888  0.00047531  0.94730540    -0.74400
O277        O  0.25779576  0.45973519  0.92527368    -0.74300
O278        O  0.27513112  0.52826994  0.80719757    -0.74300
O279        O  0.30681409  0.03772067  0.87978821    -0.74300
O280        O  0.22439535  0.44927437  0.85338495    -0.74300
Ni281      Ni  0.20912034  0.03810450  0.88854949     1.25400
Ni282      Ni  0.26772333  0.49224062  0.86550073     1.25400
C283        C  0.18303886  0.45518421  0.86109603     0.87900
C284        C  0.29368413  0.07437466  0.89395784     0.87900
C285        C  0.25562137  0.56511597  0.79988858     0.87900
C286        C  0.22624896  0.46787453  0.95554297     0.88100
O287        O  0.43392298  0.22000001  0.50727444    -0.74200
O288        O  0.31904295  0.25129957  0.55201523    -0.74300
O289        O  0.35549190  0.19689177  0.99349748    -0.74300
O290        O  0.39735372  0.27663191  0.56854218    -0.74400
O291        O  0.40356286  0.33604568  0.51225261    -0.74300
O292        O  0.36576823  0.25590448  0.93608701    -0.74300
O293        O  0.32719257  0.30957735  0.99398196    -0.74300
O294        O  0.44302892  0.27982146  0.95104567    -0.74300
Ni295      Ni  0.37652677  0.23441527  0.53272019     1.25400
Ni296      Ni  0.38552450  0.29782750  0.97161545     1.25400
C297        C  0.45200327  0.23937920  0.46701771     0.87900
C298        C  0.30386126  0.28478596  0.02920864     0.87900
C299        C  0.35677172  0.21284097  0.95152515     0.87900
C300        C  0.40302269  0.32028709  0.55425423     0.88100
C301        C  0.24844579  0.39299639  0.55962858    -0.21100
C302        C  0.21424771  0.40518600  0.59123385    -0.09200
C303        C  0.17565850  0.91761046  0.57640108     0.29700
C304        C  0.17880301  0.93716352  0.03088752    -0.21100
C305        C  0.21934302  0.43946583  0.00056035    -0.09200
C306        C  0.25398329  0.41550148  0.01478673     0.29700
F307        F  0.29375702  0.41604050  0.98695083    -0.19700
H308        H  0.27683993  0.37863719  0.57091297     0.18100
H309        H  0.15088138  0.95318729  0.02027039     0.18100
F310        F  0.13925453  0.92299596  0.60694533    -0.19700
C311        C  0.27412713  0.63185406  0.68273034    -0.21100
C312        C  0.31597744  0.61553981  0.67027059    -0.09200
C313        C  0.34278065  0.11327716  0.70229297     0.29700
C314        C  0.32222640  0.10258174  0.74780369    -0.21100
C315        C  0.27593041  0.59883900  0.75973346    -0.09200
C316        C  0.25208532  0.61906867  0.72800700     0.29700
F317        F  0.20768637  0.61940198  0.73875830    -0.19700
H318        H  0.25438440  0.64041846  0.65728368     0.18100
H319        H  0.34174280  0.09084365  0.77255360     0.18100
F320        F  0.38604152  0.10647566  0.69020890    -0.19700
C321        C  0.01088635  0.14017380  0.42708977    -0.21100
C322        C  0.04955943  0.16689576  0.90427794    -0.09200
C323        C  0.04172560  0.20819613  0.87785722     0.29700
C324        C  0.50726913  0.23298929  0.89677317    -0.21100
C325        C  0.47871679  0.21211304  0.93709191    -0.09200
C326        C  0.47623817  0.16351480  0.44773289     0.29700
F327        F  0.44377437  0.13968419  0.48040897    -0.19700
H328        H  0.01230423  0.10402830  0.43965565     0.18100
H329        H  0.50465087  0.26830464  0.88242384     0.18100
F330        F  0.07389964  0.23018891  0.84374434    -0.19700
C331        C  0.23385379  0.27295304  0.58489620    -0.21100
C332        C  0.25819559  0.29348045  0.04221525    -0.09200
C333        C  0.23710904  0.31891928  0.01056095     0.29700
C334        C  0.19284411  0.32513941  0.02289731    -0.21100
C335        C  0.16827763  0.29306292  0.05804554    -0.09200
C336        C  0.18828097  0.27188413  0.59259402     0.29700
F337        F  0.16481825  0.24057233  0.62706882    -0.19700
H338        H  0.24944100  0.25319037  0.60980346     0.18100
H339        H  0.17694100  0.34341453  0.99732138     0.18100
F340        F  0.25845008  0.33679330  0.96776155    -0.19700
C341        C  0.93220950  0.98043211  0.85748648    -0.21100
C342        C  0.42136476  0.00754184  0.81939523    -0.09200
C343        C  0.38977778  0.98920812  0.79817725     0.29700
C344        C  0.37976552  0.44194533  0.80709351    -0.21100
C345        C  0.40646516  0.41499833  0.83104614    -0.09200
C346        C  0.92192222  0.43319222  0.86509191     0.30900
F347        F  0.94047105  0.40574687  0.89534163    -0.19700
H348        H  0.95346902  0.99430106  0.87706609     0.18100
H349        H  0.36218617  0.42712310  0.78484491     0.18100
F350        F  0.37497866  0.01461234  0.76372603    -0.19700
C351        C  0.10641753  0.25225954  0.71314619    -0.21100
C352        C  0.57105848  0.23550871  0.69595529    -0.09200
C353        C  0.56350164  0.25948908  0.65439850     0.29700
C354        C  0.58287285  0.30422976  0.63825241    -0.21100
C355        C  0.60270062  0.32588557  0.66764994    -0.09200
C356        C  0.12527771  0.29705761  0.69547135     0.29700
F357        F  0.15400064  0.31584952  0.71691719    -0.19700
H358        H  0.11639552  0.23305387  0.74240399     0.18100
H359        H  0.57199742  0.32476654  0.61023407     0.18100
F360        F  0.53454973  0.24215507  0.63221558    -0.19700
C361        C  0.35606293  0.68085061  0.41864262     0.03300
C362        C  0.39285454  0.68534410  0.38263126    -0.12800
C363        C  0.39798554  0.65388869  0.35306635     0.00800
C364        C  0.36567710  0.61767274  0.35915488    -0.11400
C365        C  0.32768253  0.61237939  0.39358331     0.03300
C366        C  0.32315372  0.64432627  0.42390914    -0.10800
H367        H  0.41824389  0.71273892  0.37829975     0.08900
H368        H  0.37034489  0.59312038  0.33642575     0.06400
H369        H  0.29476490  0.64069414  0.45129435     0.06300
C370        C  0.37405869  0.91923080  0.12075295     0.03300
C371        C  0.39964711  0.91045120  0.15387693    -0.12800
C372        C  0.42782240  0.87444528  0.15485732     0.00800
C373        C  0.42912253  0.84488336  0.12252728    -0.11400
C374        C  0.40464087  0.85313324  0.08748678     0.03300
C375        C  0.37781053  0.89120885  0.08676919    -0.10800
H376        H  0.39763539  0.93210597  0.17945527     0.08900
H377        H  0.45014503  0.81660447  0.12372238     0.06400
H378        H  0.35767087  0.89721548  0.06140206     0.06300
C379        C  0.08761760  0.88050879  0.33686973     0.03300
C380        C  0.08772898  0.84143252  0.36975542    -0.12800
C381        C  0.11837570  0.83763288  0.39791861     0.00800
C382        C  0.15041625  0.87431975  0.39307556    -0.11400
C383        C  0.15037301  0.91559987  0.36199281     0.03300
C384        C  0.11849574  0.91833474  0.33404538    -0.10800
H385        H  0.06461661  0.81267078  0.37268362     0.08900
H386        H  0.17441409  0.87144505  0.41469470     0.06400
H387        H  0.11850251  0.94922056  0.30957755     0.06300
C388        C  0.11467300  0.61160059  0.08632213     0.03300
C389        C  0.15493107  0.59350393  0.09119143    -0.12800
C390        C  0.16095853  0.56897461  0.13319658     0.00800
C391        C  0.12574894  0.56448142  0.17125701    -0.11400
C392        C  0.08477009  0.58195273  0.16634502     0.03300
C393        C  0.07954469  0.60296296  0.12318947    -0.10800
H394        H  0.18210792  0.59991976  0.06241537     0.08900
H395        H  0.13036954  0.54831382  0.20430389     0.06400
H396        H  0.04879592  0.61743522  0.11906836     0.06300
O397        O  0.43217685  0.65743032  0.27617577    -0.74200
O398        O  0.01222815  0.59969670  0.19569715    -0.74300
O399        O  0.43958124  0.57307172  0.26189061    -0.74300
O400        O  0.50612469  0.68556466  0.20843701    -0.74400
O401        O  0.04911331  0.67422894  0.25920392    -0.74300
O402        O  0.98322545  0.56012800  0.31193973    -0.74300
O403        O  0.05717079  0.58870349  0.24454512    -0.74300
O404        O  0.47459059  0.64475299  0.32752131    -0.74300
Ni405      Ni  0.47115318  0.62959915  0.23378557     1.25400
Ni406      Ni  0.01760868  0.61667679  0.28775622     1.25400
C407        C  0.43760383  0.65490970  0.31695188     0.87900
C408        C  0.04931854  0.58820020  0.20489463     0.87900
C409        C  0.44906504  0.54922287  0.29702958     0.87900
C410        C  0.54069300  0.69656043  0.22253142     0.88100
O411        O  0.14149988  0.65432907  0.01125176    -0.74200
O412        O  0.14884351  0.76906601  0.42874897    -0.74300
O413        O  0.16887063  0.74034074  0.51025340    -0.74300
O414        O  0.11769637  0.68190706  0.42856298    -0.74400
O415        O  0.05369042  0.69190586  0.97153887    -0.74300
O416        O  0.10382327  0.76186776  0.04247970    -0.74300
O417        O  0.08096529  0.78163789  0.46144485    -0.74300
O418        O  0.07903570  0.67323321  0.05090412    -0.74300
Ni419      Ni  0.14666091  0.71056991  0.46834970     1.25400
Ni420      Ni  0.07682102  0.72736853  0.00770695     1.25400
C421        C  0.11106145  0.64712032  0.04689883     0.87900
C422        C  0.11625699  0.79437314  0.43140095     0.87900
C423        C  0.14518270  0.76217011  0.53778585     0.87900
C424        C  0.07568114  0.67854734  0.43689458     0.88100
O425        O  0.33602864  0.98414289  0.09118440    -0.74200
O426        O  0.23456877  0.55588237  0.09983798    -0.74300
O427        O  0.31686646  0.57075541  0.11226185    -0.74300
O428        O  0.25332100  0.47489067  0.08056111    -0.74400
O429        O  0.23206389  0.93818232  0.15195497    -0.74300
O430        O  0.29244874  0.03764080  0.18434933    -0.74300
O431        O  0.20956300  0.52090318  0.17094970    -0.74300
O432        O  0.31449759  0.95306301  0.16398553    -0.74300
Ni433      Ni  0.28648316  0.52258455  0.09356816     1.25400
Ni434      Ni  0.26180399  0.98657456  0.17070589     1.25400
C435        C  0.34027362  0.95424630  0.12539582     0.87900
C436        C  0.20391814  0.54806674  0.13538648     0.87900
C437        C  0.31068390  0.07206158  0.15440622     0.87900
C438        C  0.23313013  0.94111485  0.10980190     0.88100
O439        O  0.48096702  0.90874884  0.18807805    -0.74200
O440        O  0.05542035  0.91453864  0.27445034    -0.74300
O441        O  0.06583286  0.89105198  0.19098436    -0.74300
O442        O  0.96956400  0.92874966  0.27250498    -0.74400
O443        O  0.44601128  0.85608460  0.30284703    -0.74300
O444        O  0.54150997  0.81975308  0.22506851    -0.74300
O445        O  0.03141959  0.84292757  0.30716580    -0.74300
O446        O  0.45831197  0.83592375  0.21770188    -0.74300
Ni447      Ni  0.01858329  0.91351214  0.23044691     1.25400
Ni448      Ni  0.49361681  0.83613123  0.26426023     1.25400
C449        C  0.45762433  0.87210836  0.18810408     0.87900
C450        C  0.05638413  0.87953265  0.30484589     0.87900
C451        C  0.56901542  0.84767591  0.19576149     0.87900
C452        C  0.44211686  0.89876420  0.30055856     0.88100
O453        O  0.16973926  0.99309964  0.37229740    -0.74200
O454        O  0.25227189  0.57980814  0.40359372    -0.74300
O455        O  0.22211827  0.57345361  0.32819116    -0.74300
O456        O  0.20140222  0.50046169  0.44733034    -0.74400
O457        O  0.25778339  0.95971371  0.42529761    -0.74300
O458        O  0.27513082  0.02824029  0.30721584    -0.74300
O459        O  0.30680917  0.53770005  0.37981019    -0.74300
O460        O  0.22438908  0.94924904  0.35340616    -0.74300
Ni461      Ni  0.20911408  0.53809130  0.38857502     1.25400
Ni462      Ni  0.26771736  0.99221464  0.36552195     1.25400
C463        C  0.18303310  0.95516168  0.36111259     0.87900
C464        C  0.29368224  0.57435559  0.39397823     0.87900
C465        C  0.25562193  0.06508636  0.29990220     0.87900
C466        C  0.22623488  0.96785655  0.45556347     0.88100
O467        O  0.43392100  0.72001413  0.00726627    -0.74200
O468        O  0.31904296  0.75132166  0.05200018    -0.74300
O469        O  0.35549338  0.69687300  0.49350921    -0.74300
O470        O  0.39735272  0.77664349  0.06853608    -0.74400
O471        O  0.40356763  0.83606122  0.01224964    -0.74300
O472        O  0.36576772  0.75588481  0.43609773    -0.74300
O473        O  0.32719342  0.80955936  0.49399049    -0.74300
O474        O  0.44302923  0.77980139  0.45105347    -0.74300
Ni475      Ni  0.37652546  0.73443300  0.03270862     1.25400
Ni476      Ni  0.38552517  0.79780857  0.47162339     1.25400
C477        C  0.45200447  0.73939462  0.96701103     0.87900
C478        C  0.30386244  0.78476845  0.52921776     0.87900
C479        C  0.35677225  0.71282161  0.45153703     0.87900
C480        C  0.40302471  0.82029894  0.05425127     0.88100
C481        C  0.24845853  0.89301272  0.05960249    -0.21100
C482        C  0.21425474  0.90519311  0.09120779    -0.09200
C483        C  0.17567755  0.41760692  0.07637607     0.29700
C484        C  0.17879474  0.43715679  0.53091458    -0.21100
C485        C  0.21932352  0.93945055  0.50058306    -0.09200
C486        C  0.25395829  0.91547863  0.51481235     0.29700
F487        F  0.29373135  0.91600825  0.48697805    -0.19700
H488        H  0.27685383  0.87865752  0.07088778     0.18100
H489        H  0.15087519  0.45318555  0.52029841     0.18100
F490        F  0.13926795  0.42297476  0.10692128    -0.19700
C491        C  0.27412543  0.13184588  0.18274868    -0.21100
C492        C  0.31597439  0.11553184  0.17028124    -0.09200
C493        C  0.34276420  0.61327116  0.20231148     0.29700
C494        C  0.32221535  0.60256761  0.24782329    -0.21100
C495        C  0.27593147  0.09880694  0.25974531    -0.09200
C496        C  0.25208502  0.11904719  0.22802452     0.29700
F497        F  0.20768621  0.11938043  0.23877825    -0.19700
H498        H  0.25438195  0.14042041  0.15730470     0.18100
H499        H  0.34173527  0.59082409  0.27256857     0.18100
F500        F  0.38602440  0.60647087  0.19021948    -0.19700
C501        C  0.01088361  0.64018716  0.92708262    -0.21100
C502        C  0.04955922  0.66687465  0.40428681    -0.09200
C503        C  0.04172601  0.70817495  0.37786558     0.29700
C504        C  0.50726902  0.73296776  0.39678273    -0.21100
C505        C  0.47871739  0.71209252  0.43710227    -0.09200
C506        C  0.47623540  0.66352933  0.94772460     0.29700
F507        F  0.44377281  0.63969945  0.98040267    -0.19700
H508        H  0.01230106  0.60404115  0.93964815     0.18100
H509        H  0.50464937  0.76828224  0.38243176     0.18100
F510        F  0.07390072  0.73016783  0.34375347    -0.19700
C511        C  0.23385760  0.77298189  0.08488086    -0.21100
C512        C  0.25819652  0.79346231  0.54222474    -0.09200
C513        C  0.23710894  0.81889958  0.51057051     0.29700
C514        C  0.19284338  0.82511749  0.52290684    -0.21100
C515        C  0.16827797  0.79303986  0.55805473    -0.09200
C516        C  0.18828476  0.77190994  0.09257914     0.29700
F517        F  0.16482373  0.74060283  0.12705931    -0.19700
H518        H  0.24944605  0.75322536  0.10979062     0.18100
H519        H  0.17693958  0.84339195  0.49733091     0.18100
F520        F  0.25844897  0.83677217  0.46777041    -0.19700
C521        C  0.93219449  0.48044215  0.35748281    -0.21100
C522        C  0.42135515  0.50754456  0.31938454    -0.09200
C523        C  0.38977048  0.48920868  0.29816510     0.29700
C524        C  0.37975533  0.94193531  0.30710470    -0.21100
C525        C  0.40645141  0.91498785  0.33106176    -0.09200
C526        C  0.92190901  0.93318838  0.36510627     0.30900
F527        F  0.94044977  0.90574470  0.39536432    -0.19700
H528        H  0.95345145  0.49431397  0.37706325     0.18100
H529        H  0.36217320  0.92711060  0.28485946     0.18100
F530        F  0.37497976  0.51460804  0.26370535    -0.19700
C531        C  0.10641143  0.75226473  0.21314224    -0.21100
C532        C  0.57105061  0.73551404  0.19595412    -0.09200
C533        C  0.56349250  0.75949723  0.15439884     0.29700
C534        C  0.58286310  0.80423856  0.13825515    -0.21100
C535        C  0.60269108  0.82589183  0.16765423    -0.09200
C536        C  0.12527073  0.79706370  0.19546987     0.29700
F537        F  0.15399868  0.81585283  0.21691201    -0.19700
H538        H  0.11639170  0.73305641  0.24239733     0.18100
H539        H  0.57198684  0.82477709  0.11023845     0.18100
F540        F  0.53454011  0.74216522  0.13221532    -0.19700
C541        C  0.35606307  0.68087659  0.91862641     0.03300
C542        C  0.39285641  0.68536726  0.88261694    -0.12800
C543        C  0.39798810  0.65390948  0.85305422     0.00800
C544        C  0.36567919  0.61769488  0.85914222    -0.11400
C545        C  0.32768309  0.61240404  0.89356765     0.03300
C546        C  0.32315294  0.64435275  0.92389199    -0.10800
H547        H  0.41824682  0.71276113  0.87828581     0.08900
H548        H  0.37034839  0.59314094  0.83641495     0.06400
H549        H  0.29476276  0.64072200  0.95127580     0.06300
C550        C  0.37406326  0.91921996  0.62075162     0.03300
C551        C  0.39965549  0.91044343  0.65387214    -0.12800
C552        C  0.42783029  0.87443736  0.65485211     0.00800
C553        C  0.42912705  0.84487258  0.62252552    -0.11400
C554        C  0.40464149  0.85311918  0.58748856     0.03300
C555        C  0.37781041  0.89119438  0.58677105    -0.10800
H556        H  0.39764705  0.93210056  0.67944819     0.08900
H557        H  0.45014987  0.81659401  0.62372042     0.06400
H558        H  0.35766731  0.89719808  0.56140705     0.06300
C559        C  0.08762662  0.88051837  0.83685477     0.03300
C560        C  0.08773470  0.84144527  0.86974455    -0.12800
C561        C  0.11837936  0.83764794  0.89790938     0.00800
C562        C  0.15042063  0.87433499  0.89306503    -0.11400
C563        C  0.15037993  0.91561306  0.86197806     0.03300
C564        C  0.11850507  0.91834464  0.83402804    -0.10800
H565        H  0.06462181  0.81268346  0.87267428     0.08900
H566        H  0.17441727  0.87146195  0.91468531     0.06400
H567        H  0.11851376  0.94922827  0.80955664     0.06300
C568        C  0.11467572  0.61158826  0.58633280     0.03300
C569        C  0.15493510  0.59349636  0.59120364    -0.12800
C570        C  0.16096363  0.56896940  0.63320924     0.00800
C571        C  0.12575327  0.56447494  0.67126945    -0.11400
C572        C  0.08477271  0.58194203  0.66635592     0.03300
C573        C  0.07954666  0.60294802  0.62319918    -0.10800
H574        H  0.18211244  0.59991419  0.56242764     0.08900
H575        H  0.13037441  0.54830983  0.70431661     0.06400
H576        H  0.04879662  0.61741646  0.61907620     0.06300
O577        O  0.43218177  0.65743801  0.77616722    -0.74200
O578        O  0.01223013  0.59968760  0.69570456    -0.74300
O579        O  0.43958209  0.57307434  0.76189482    -0.74300
O580        O  0.50613085  0.68556041  0.70843053    -0.74400
O581        O  0.04911583  0.67422785  0.75920340    -0.74300
O582        O  0.98322322  0.56013174  0.81194852    -0.74300
O583        O  0.05717121  0.58869898  0.74455437    -0.74300
O584        O  0.47459194  0.64476470  0.82751657    -0.74300
Ni585      Ni  0.47115710  0.62959819  0.73378421     1.25400
Ni586      Ni  0.01760906  0.61667843  0.78776048     1.25400
C587        C  0.43760739  0.65492383  0.81694313     0.87900
C588        C  0.04932008  0.58819184  0.70490406     0.87900
C589        C  0.44906426  0.54922801  0.79703591     0.87900
C590        C  0.54069792  0.69655803  0.72252588     0.88100
O591        O  0.14150187  0.65431598  0.51126210    -0.74200
O592        O  0.14884368  0.76907896  0.92873852    -0.74300
O593        O  0.16887079  0.74035480  0.01024202    -0.74300
O594        O  0.11769295  0.68192043  0.92855324    -0.74400
O595        O  0.05369267  0.69189018  0.47154808    -0.74300
O596        O  0.10382264  0.76185336  0.54249008    -0.74300
O597        O  0.08096654  0.78165350  0.96143519    -0.74300
O598        O  0.07903700  0.67321897  0.55091425    -0.74300
Ni599      Ni  0.14665950  0.71058303  0.96833927     1.25400
Ni600      Ni  0.07682149  0.72735362  0.50771674     1.25400
C601        C  0.11106335  0.64710693  0.54690918     0.87900
C602        C  0.11625885  0.79438812  0.93139177     0.87900
C603        C  0.14518354  0.76218615  0.03777324     0.87900
C604        C  0.07567763  0.67856189  0.93688547     0.88100
O605        O  0.33603311  0.98413148  0.59118331    -0.74200
O606        O  0.23457160  0.55587591  0.59984609    -0.74300
O607        O  0.31687463  0.57074982  0.61225365    -0.74300
O608        O  0.25331543  0.47488072  0.58057535    -0.74400
O609        O  0.23206889  0.93817879  0.65196946    -0.74300
O610        O  0.29246778  0.03764019  0.68434481    -0.74300
O611        O  0.20957418  0.52090493  0.67096199    -0.74300
O612        O  0.31450797  0.95305749  0.66398665    -0.74300
Ni613      Ni  0.28648428  0.52257631  0.59357115     1.25400
Ni614      Ni  0.26181660  0.98657244  0.67071072     1.25400
C615        C  0.34028001  0.95423690  0.62539530     0.87900
C616        C  0.20392471  0.54806392  0.63539787     0.87900
C617        C  0.31069956  0.07205895  0.65439716     0.87900
C618        C  0.23312947  0.94110697  0.60981778     0.88100
O619        O  0.48097794  0.90874372  0.68806548    -0.74200
O620        O  0.05543212  0.91454131  0.77443179    -0.74300
O621        O  0.06584352  0.89104639  0.69096972    -0.74300
O622        O  0.96957570  0.92875007  0.77248739    -0.74400
O623        O  0.44602490  0.85608666  0.80283603    -0.74300
O624        O  0.54152140  0.81975047  0.72505956    -0.74300
O625        O  0.03143170  0.84293159  0.80715273    -0.74300
O626        O  0.45832324  0.83591945  0.71769423    -0.74300
Ni627      Ni  0.01859454  0.91350965  0.73043029     1.25400
Ni628      Ni  0.49362922  0.83613100  0.76425027     1.25400
C629        C  0.45763469  0.87210260  0.68809525     0.87900
C630        C  0.05639542  0.87953788  0.80483004     0.87900
C631        C  0.56902631  0.84767182  0.69575045     0.87900
C632        C  0.44213124  0.89876645  0.80054597     0.88100
O633        O  0.16974536  0.99311459  0.87227948    -0.74200
O634        O  0.25227393  0.57982900  0.90357575    -0.74300
O635        O  0.22212209  0.57347462  0.82817167    -0.74300
O636        O  0.20141213  0.50047705  0.94730917    -0.74400
O637        O  0.25779368  0.95973261  0.92527583    -0.74300
O638        O  0.27513390  0.02825897  0.80719548    -0.74300
O639        O  0.30681422  0.53772577  0.87978941    -0.74300
O640        O  0.22439615  0.94926557  0.85338723    -0.74300
Ni641      Ni  0.20912010  0.53810933  0.88855516     1.25400
Ni642      Ni  0.26772375  0.99223371  0.86550110     1.25400
C643        C  0.18303980  0.95517644  0.86109545     0.87900
C644        C  0.29368467  0.57437926  0.89396027     0.87900
C645        C  0.25562514  0.06510523  0.79988317     0.87900
C646        C  0.22624523  0.96787324  0.95554270     0.88100
O647        O  0.43392413  0.71999696  0.50727536    -0.74200
O648        O  0.31904415  0.75129729  0.55201416    -0.74300
O649        O  0.35549055  0.69689755  0.99349434    -0.74300
O650        O  0.39735437  0.77662722  0.56854359    -0.74400
O651        O  0.40356481  0.83604215  0.51225486    -0.74300
O652        O  0.36577173  0.75591064  0.93608382    -0.74300
O653        O  0.32719673  0.80958526  0.99397738    -0.74300
O654        O  0.44303217  0.77982110  0.95104659    -0.74300
Ni655      Ni  0.37652788  0.73441242  0.53272011     1.25400
Ni656      Ni  0.38552868  0.79783145  0.97161364     1.25400
C657        C  0.45200522  0.73937680  0.46701911     0.87900
C658        C  0.30386358  0.78479415  0.02920326     0.87900
C659        C  0.35677278  0.71284742  0.95152173     0.87900
C660        C  0.40302399  0.82028240  0.55425632     0.88100
C661        C  0.24844087  0.89299426  0.55962623    -0.21100
C662        C  0.21424358  0.90518566  0.59123111    -0.09200
C663        C  0.17566200  0.41760933  0.57640439     0.29700
C664        C  0.17880993  0.43716099  0.03088817    -0.21100
C665        C  0.21933670  0.93946613  0.00056118    -0.09200
C666        C  0.25397518  0.91550042  0.01478994     0.29700
F667        F  0.29375025  0.91603925  0.98695654    -0.19700
H668        H  0.27683455  0.87863408  0.57091095     0.18100
H669        H  0.15088718  0.45318378  0.02027264     0.18100
F670        F  0.13925846  0.42299531  0.60694904    -0.19700
C671        C  0.27413732  0.13184873  0.68272447    -0.21100
C672        C  0.31598726  0.11553346  0.67026555    -0.09200
C673        C  0.34277271  0.61328662  0.70229606     0.29700
C674        C  0.32222062  0.60259406  0.74780743    -0.21100
C675        C  0.27593601  0.09882647  0.75972718    -0.09200
C676        C  0.25209272  0.11905833  0.72799975     0.29700
F677        F  0.20769341  0.11938930  0.73874771    -0.19700
H678        H  0.25439660  0.14041636  0.65727679     0.18100
H679        H  0.34173866  0.59085612  0.77255621     0.18100
F680        F  0.38603336  0.60648499  0.69021054    -0.19700
C681        C  0.01088889  0.64017181  0.42708877    -0.21100
C682        C  0.04955409  0.66688887  0.90427893    -0.09200
C683        C  0.04172059  0.70818896  0.87785757     0.29700
C684        C  0.50726630  0.73298364  0.89677364    -0.21100
C685        C  0.47871463  0.71210932  0.93709361    -0.09200
C686        C  0.47623995  0.66351269  0.44773326     0.29700
F687        F  0.44377734  0.63968179  0.48041053    -0.19700
H688        H  0.01230695  0.60402604  0.43965428     0.18100
H689        H  0.50464875  0.76829885  0.88242308     0.18100
F690        F  0.07389396  0.73017994  0.84374297    -0.19700
C691        C  0.23385642  0.77295263  0.58489630    -0.21100
C692        C  0.25819755  0.79348804  0.04220802    -0.09200
C693        C  0.23710987  0.81892149  0.01055146     0.29700
C694        C  0.19284344  0.82513630  0.02288569    -0.21100
C695        C  0.16827895  0.79306097  0.05803682    -0.09200
C696        C  0.18828353  0.77188220  0.59259464     0.29700
F697        F  0.16482225  0.74056963  0.62706957    -0.19700
H698        H  0.24944423  0.75319178  0.60980363     0.18100
H699        H  0.17693919  0.84340653  0.99730837     0.18100
F700        F  0.25845145  0.83679518  0.96775215    -0.19700
C701        C  0.93219878  0.48043940  0.85748419    -0.21100
C702        C  0.42135513  0.50754915  0.81939016    -0.09200
C703        C  0.38977124  0.48921458  0.79816911     0.29700
C704        C  0.37976967  0.94193920  0.80710338    -0.21100
C705        C  0.40647038  0.91499093  0.83105333    -0.09200
C706        C  0.92193025  0.93318521  0.86509578     0.30900
F707        F  0.94048011  0.90573918  0.89534409    -0.19700
H708        H  0.95345610  0.49430914  0.87706559     0.18100
H709        H  0.36218670  0.92711737  0.78485702     0.18100
F710        F  0.37497404  0.51461860  0.76371633    -0.19700
C711        C  0.10641757  0.75225766  0.71313541    -0.21100
C712        C  0.57105612  0.73550969  0.69594686    -0.09200
C713        C  0.56349670  0.75949247  0.65439207     0.29700
C714        C  0.58286917  0.80423271  0.63824632    -0.21100
C715        C  0.60270017  0.82588579  0.66764340    -0.09200
C716        C  0.12527891  0.79705528  0.69546028     0.29700
F717        F  0.15400872  0.81584421  0.71690046    -0.19700
H718        H  0.11639795  0.73304990  0.74239096     0.18100
H719        H  0.57199214  0.82477130  0.61023034     0.18100
F720        F  0.53454053  0.74216192  0.63221175    -0.19700
C721        C  0.85605899  0.18085076  0.41864339     0.03300
C722        C  0.89285190  0.18534281  0.38263365    -0.12800
C723        C  0.89798344  0.15388695  0.35306930     0.00800
C724        C  0.86567412  0.11767266  0.35915562    -0.11400
C725        C  0.82767843  0.11238032  0.39358223     0.03300
C726        C  0.82314888  0.14432731  0.42390824    -0.10800
H727        H  0.91824169  0.21273684  0.37830292     0.08900
H728        H  0.87034223  0.09312066  0.33642613     0.06400
H729        H  0.79475892  0.14069582  0.45129240     0.06300
C730        C  0.87405890  0.41923188  0.12075350     0.03300
C731        C  0.89964678  0.41045051  0.15387757    -0.12800
C732        C  0.92782077  0.37444357  0.15485772     0.00800
C733        C  0.92912009  0.34488191  0.12252762    -0.11400
C734        C  0.90463856  0.35313271  0.08748715     0.03300
C735        C  0.87780970  0.39120987  0.08676943    -0.10800
H736        H  0.89763588  0.43210500  0.17945613     0.08900
H737        H  0.95014173  0.31660256  0.12372272     0.06400
H738        H  0.85767061  0.39721776  0.06140207     0.06300
C739        C  0.58761443  0.38051224  0.33686921     0.03300
C740        C  0.58772608  0.34143613  0.36975469    -0.12800
C741        C  0.61837105  0.33763784  0.39791951     0.00800
C742        C  0.65040955  0.37432602  0.39307890    -0.11400
C743        C  0.65036637  0.41560616  0.36199630     0.03300
C744        C  0.61849084  0.41833963  0.33404659    -0.10800
H745        H  0.56461525  0.31267289  0.37268136     0.08900
H746        H  0.67440639  0.37145183  0.41469930     0.06400
H747        H  0.61849776  0.44922518  0.30957841     0.06300
C748        C  0.61467431  0.11161037  0.08632644     0.03300
C749        C  0.65493202  0.09351154  0.09119393    -0.12800
C750        C  0.66096003  0.06897982  0.13319789     0.00800
C751        C  0.62575106  0.06448516  0.17125906    -0.11400
C752        C  0.58477249  0.08195827  0.16634941     0.03300
C753        C  0.57954728  0.10297420  0.12319539    -0.10800
H754        H  0.68210821  0.09992663  0.06241697     0.08900
H755        H  0.63037156  0.04831372  0.20430496     0.06400
H756        H  0.54879911  0.11744919  0.11907645     0.06300
O757        O  0.93217705  0.15742654  0.27618051    -0.74200
O758        O  0.51222838  0.09969301  0.19570446    -0.74300
O759        O  0.93958176  0.07306724  0.26189609    -0.74300
O760        O  0.00612587  0.18556041  0.20844460    -0.74400
O761        O  0.54911211  0.17422242  0.25921530    -0.74300
O762        O  0.48322508  0.06012050  0.31194662    -0.74300
O763        O  0.55717120  0.08869936  0.24455221    -0.74300
O764        O  0.97458813  0.14474711  0.32752845    -0.74300
Ni765      Ni  0.97115402  0.12959507  0.23379166     1.25400
Ni766      Ni  0.51760783  0.11666992  0.28776506     1.25400
C767        C  0.93760263  0.15490586  0.31695698     0.87900
C768        C  0.54931969  0.08819886  0.20490089     0.87900
C769        C  0.94906537  0.04921776  0.29703491     0.87900
C770        C  0.04069333  0.19655573  0.22254067     0.88100
O771        O  0.64150000  0.15433546  0.01125416    -0.74200
O772        O  0.64884001  0.26907096  0.42874669    -0.74300
O773        O  0.66887032  0.24034854  0.51024978    -0.74300
O774        O  0.61769469  0.18191071  0.42856274    -0.74400
O775        O  0.55369180  0.19191161  0.97153760    -0.74300
O776        O  0.60382236  0.26187411  0.04247945    -0.74300
O777        O  0.58096222  0.28164158  0.46144509    -0.74300
O778        O  0.57903527  0.17324019  0.05090488    -0.74300
Ni779      Ni  0.64666010  0.21057574  0.46834767     1.25400
Ni780      Ni  0.57682139  0.22737485  0.00770600     1.25400
C781        C  0.61106169  0.14712798  0.04690143     0.87900
C782        C  0.61625324  0.29437765  0.43140050     0.87900
C783        C  0.64518215  0.26217619  0.53778378     0.87900
C784        C  0.57567942  0.17854999  0.43689535     0.88100
O785        O  0.83603046  0.48414640  0.09118674    -0.74200
O786        O  0.73456807  0.05588211  0.09983603    -0.74300
O787        O  0.81686812  0.07075075  0.11225580    -0.74300
O788        O  0.75331412  0.97488818  0.08056147    -0.74400
O789        O  0.73206728  0.43817932  0.15195522    -0.74300
O790        O  0.79244248  0.53764184  0.18435303    -0.74300
O791        O  0.70956377  0.02090567  0.17094895    -0.74300
O792        O  0.81449868  0.45306495  0.16398734    -0.74300
Ni793      Ni  0.78648043  0.02258082  0.09356555     1.25400
Ni794      Ni  0.76180270  0.48657338  0.17070751     1.25400
C795        C  0.84027484  0.45424866  0.12539747     0.87900
C796        C  0.70391872  0.04806907  0.13538575     0.87900
C797        C  0.81067633  0.57206374  0.15441066     0.87900
C798        C  0.73313581  0.44111131  0.10980188     0.88100
O799        O  0.98096820  0.40874594  0.18807500    -0.74200
O800        O  0.55541920  0.41453894  0.27444738    -0.74300
O801        O  0.56583376  0.39104564  0.19098467    -0.74300
O802        O  0.46956379  0.42875076  0.27249851    -0.74400
O803        O  0.94600966  0.35608865  0.30284673    -0.74300
O804        O  0.04150620  0.31974994  0.22507067    -0.74300
O805        O  0.53141781  0.34292861  0.30716498    -0.74300
O806        O  0.95830868  0.33592290  0.21770362    -0.74300
Ni807      Ni  0.51858366  0.41350963  0.23044330     1.25400
Ni808      Ni  0.99361405  0.33613179  0.26426123     1.25400
C809        C  0.95762322  0.37210627  0.18810365     0.87900
C810        C  0.55638226  0.37953412  0.30484427     0.87900
C811        C  0.06901415  0.34767112  0.19576459     0.87900
C812        C  0.94211638  0.39876867  0.30055548     0.88100
O813        O  0.66973492  0.49310494  0.37230448    -0.74200
O814        O  0.75226879  0.07980817  0.40358693    -0.74300
O815        O  0.72212124  0.07344836  0.32818142    -0.74300
O816        O  0.70140031  0.00046118  0.44732367    -0.74400
O817        O  0.75778334  0.45971487  0.42529769    -0.74300
O818        O  0.77512421  0.52824543  0.30721792    -0.74300
O819        O  0.80680825  0.03770036  0.37980873    -0.74300
O820        O  0.72438303  0.44925418  0.35340787    -0.74300
Ni821      Ni  0.70911449  0.03808862  0.38856677     1.25400
Ni822      Ni  0.76771405  0.49221770  0.36552250     1.25400
C823        C  0.68302723  0.45516752  0.36111661     0.87900
C824        C  0.79367936  0.07435607  0.39397516     0.87900
C825        C  0.75561603  0.56509247  0.29990756     0.87900
C826        C  0.72623679  0.46785780  0.45556567     0.88100
O827        O  0.93392325  0.22001396  0.00726658    -0.74200
O828        O  0.81904268  0.25131236  0.05200610    -0.74300
O829        O  0.85549102  0.19687472  0.49350956    -0.74300
O830        O  0.89735254  0.27664185  0.06853751    -0.74400
O831        O  0.90356229  0.33605855  0.01225089    -0.74300
O832        O  0.86576374  0.25588572  0.43609746    -0.74300
O833        O  0.82719117  0.30956117  0.49399019    -0.74300
O834        O  0.94302639  0.27980367  0.45105044    -0.74300
Ni835      Ni  0.87652668  0.23442837  0.03271173     1.25400
Ni836      Ni  0.88552247  0.29781068  0.47162172     1.25400
C837        C  0.95200488  0.23939543  0.96701102     0.87900
C838        C  0.80386082  0.28477067  0.52921806     0.87900
C839        C  0.85676846  0.21282256  0.45153743     0.87900
C840        C  0.90302161  0.32029745  0.05425228     0.88100
C841        C  0.74846780  0.39301095  0.05960095    -0.21100
C842        C  0.71426324  0.40518856  0.09120734    -0.09200
C843        C  0.67566841  0.91760739  0.07637695     0.29700
C844        C  0.67879145  0.93715914  0.53091059    -0.21100
C845        C  0.71932741  0.43945175  0.50058495    -0.09200
C846        C  0.75396388  0.41548258  0.51481362     0.29700
F847        F  0.79373717  0.41601526  0.48697884    -0.19700
H848        H  0.77686380  0.37865622  0.07088515     0.18100
H849        H  0.65087264  0.95318887  0.52029404     0.18100
F850        F  0.63925824  0.92297727  0.10692032    -0.19700
C851        C  0.77411514  0.63184732  0.18275466    -0.21100
C852        C  0.81596434  0.61553384  0.17028668    -0.09200
C853        C  0.84277073  0.11326682  0.20230421     0.29700
C854        C  0.82222069  0.10256103  0.24781568    -0.21100
C855        C  0.77592448  0.59881415  0.25975155    -0.09200
C856        C  0.75207685  0.61905309  0.22803159     0.29700
F857        F  0.70767836  0.61938890  0.23878813    -0.19700
H858        H  0.75437016  0.64041940  0.15731141     0.18100
H859        H  0.84174000  0.09081815  0.27256171     0.18100
F860        F  0.88603157  0.10646879  0.19021273    -0.19700
C861        C  0.51088737  0.14019233  0.92707891    -0.21100
C862        C  0.54955692  0.16687593  0.40428847    -0.09200
C863        C  0.54172332  0.20817536  0.37786613     0.29700
C864        C  0.00726732  0.23296970  0.39678041    -0.21100
C865        C  0.97871541  0.21209493  0.43709990    -0.09200
C866        C  0.97624052  0.16353273  0.94772262     0.29700
F867        F  0.94377682  0.13970079  0.98039797    -0.19700
H868        H  0.51230508  0.10404645  0.93964346     0.18100
H869        H  0.00464804  0.26828437  0.38242897     0.18100
F870        F  0.57389715  0.23016661  0.34375216    -0.19700
C871        C  0.73385425  0.27296874  0.08488768    -0.21100
C872        C  0.75819509  0.29346492  0.54222557    -0.09200
C873        C  0.73710819  0.31890474  0.51057223     0.29700
C874        C  0.69284285  0.32512313  0.52290855    -0.21100
C875        C  0.66827681  0.29304442  0.55805481    -0.09200
C876        C  0.68828147  0.27190145  0.09258624     0.29700
F877        F  0.66481812  0.24059282  0.12706354    -0.19700
H878        H  0.74944152  0.25320729  0.10979574     0.18100
H879        H  0.67693959  0.34339928  0.49733311     0.18100
F880        F  0.75844881  0.33677986  0.46777299    -0.19700
C881        C  0.43219371  0.98043405  0.35748824    -0.21100
C882        C  0.92135544  0.00753917  0.31938951    -0.09200
C883        C  0.88977076  0.98920353  0.29816988     0.29700
C884        C  0.87975597  0.44194177  0.30710038    -0.21100
C885        C  0.90645213  0.41499493  0.33105790    -0.09200
C886        C  0.42191034  0.43319396  0.36510062     0.30900
F887        F  0.44045206  0.40575083  0.39535821    -0.19700
H888        H  0.45345055  0.99430508  0.37706914     0.18100
H889        H  0.86217393  0.42711646  0.28485547     0.18100
F890        F  0.87498111  0.01460274  0.26370938    -0.19700
C891        C  0.60641035  0.25225861  0.21315583    -0.21100
C892        C  0.07105233  0.23550794  0.19596398    -0.09200
C893        C  0.06349816  0.25948824  0.15440599     0.29700
C894        C  0.08286804  0.30422968  0.13826211    -0.21100
C895        C  0.10269212  0.32588519  0.16766232    -0.09200
C896        C  0.62526952  0.29705734  0.19548270     0.29700
F897        F  0.65399190  0.31584929  0.21692912    -0.19700
H898        H  0.61638748  0.23305260  0.24241409     0.18100
H899        H  0.07199418  0.32476656  0.11024276     0.18100
F900        F  0.03455041  0.24215295  0.13221938    -0.19700
C901        C  0.85606335  0.18086739  0.91863170     0.03300
C902        C  0.89285796  0.18535757  0.88262367    -0.12800
C903        C  0.89799053  0.15390018  0.85306056     0.00800
C904        C  0.86568079  0.11768691  0.85914600    -0.11400
C905        C  0.82768329  0.11239645  0.89356965     0.03300
C906        C  0.82315247  0.14434450  0.92389498    -0.10800
H907        H  0.91824834  0.21275100  0.87829366     0.08900
H908        H  0.87035034  0.09313370  0.83641759     0.06400
H909        H  0.79476123  0.14071412  0.95127746     0.06300
C910        C  0.87406370  0.41922536  0.62075065     0.03300
C911        C  0.89965561  0.41044704  0.65387113    -0.12800
C912        C  0.92782985  0.37444056  0.65485040     0.00800
C913        C  0.92912645  0.34487669  0.62252296    -0.11400
C914        C  0.90464118  0.35312443  0.58748573     0.03300
C915        C  0.87781078  0.39120060  0.58676889    -0.10800
H916        H  0.89764744  0.43210338  0.67944785     0.08900
H917        H  0.95014887  0.31659774  0.62371752     0.06400
H918        H  0.85766809  0.39720553  0.56140466     0.06300
C919        C  0.58762740  0.38052406  0.83685323     0.03300
C920        C  0.58773730  0.34144974  0.86974120    -0.12800
C921        C  0.61838141  0.33765272  0.89790679     0.00800
C922        C  0.65042099  0.37434080  0.89306433    -0.11400
C923        C  0.65037940  0.41561944  0.86197845     0.03300
C924        C  0.61850471  0.41835107  0.83402805    -0.10800
H925        H  0.56462581  0.31268737  0.87266957     0.08900
H926        H  0.67441685  0.37146806  0.91468550     0.06400
H927        H  0.61851250  0.44923539  0.80955779     0.06300
C928        C  0.61468231  0.11159688  0.58633363     0.03300
C929        C  0.65494178  0.09350348  0.59120225    -0.12800
C930        C  0.66097112  0.06897488  0.63320704     0.00800
C931        C  0.62576210  0.06448026  0.67126842    -0.11400
C932        C  0.58478182  0.08194873  0.66635742     0.03300
C933        C  0.57955500  0.10295818  0.62320196    -0.10800
H934        H  0.68211786  0.09992020  0.56242544     0.08900
H935        H  0.63038375  0.04831248  0.70431496     0.06400
H936        H  0.54880520  0.11742821  0.61908125     0.06300
O937        O  0.93218551  0.15743045  0.77617396    -0.74200
O938        O  0.51223737  0.09968528  0.69570873    -0.74300
O939        O  0.93958901  0.07306767  0.76189913    -0.74300
O940        O  0.00613438  0.18555715  0.70843803    -0.74400
O941        O  0.54911884  0.17422734  0.75920991    -0.74300
O942        O  0.48323194  0.06012774  0.81195208    -0.74300
O943        O  0.55717958  0.08870048  0.74455766    -0.74300
O944        O  0.97459511  0.14475612  0.82752377    -0.74300
Ni945      Ni  0.97116212  0.12959334  0.73378992     1.25400
Ni946      Ni  0.51761476  0.11667634  0.78776519     1.25400
C947        C  0.93761052  0.15491506  0.81695012     0.87900
C948        C  0.54932860  0.08819344  0.70490714     0.87900
C949        C  0.94907237  0.04922069  0.79703935     0.87900
C950        C  0.04070073  0.19655564  0.72253430     0.88100
O951        O  0.64150454  0.15432268  0.51126087    -0.74200
O952        O  0.64884560  0.26908418  0.92873823    -0.74300
O953        O  0.66887015  0.24036010  0.01024382    -0.74300
O954        O  0.61769521  0.18192555  0.92855381    -0.74400
O955        O  0.55369136  0.19189291  0.47154903    -0.74300
O956        O  0.60382198  0.26185819  0.54248907    -0.74300
O957        O  0.58096806  0.28165925  0.96143316    -0.74300
O958        O  0.57903925  0.17322350  0.55091399    -0.74300
Ni959      Ni  0.64666045  0.21058862  0.96834032     1.25400
Ni960      Ni  0.57682074  0.22735746  0.50771668     1.25400
C961        C  0.61106723  0.14711346  0.54690898     0.87900
C962        C  0.61626066  0.29439327  0.93138999     0.87900
C963        C  0.64518221  0.26218996  0.03777598     0.87900
C964        C  0.57567992  0.17856746  0.93688473     0.88100
O965        O  0.83603273  0.48413837  0.59118572    -0.74200
O966        O  0.73457702  0.05587525  0.59984178    -0.74300
O967        O  0.81688087  0.07074324  0.61225008    -0.74300
O968        O  0.75331565  0.97487843  0.58057209    -0.74400
O969        O  0.73207188  0.43817905  0.65197197    -0.74300
O970        O  0.79246205  0.53764418  0.68435071    -0.74300
O971        O  0.70957897  0.02090627  0.67095833    -0.74300
O972        O  0.81450964  0.45306300  0.66398884    -0.74300
Ni973      Ni  0.78648750  0.02257181  0.59356788     1.25400
Ni974      Ni  0.76181540  0.48657423  0.67071470     1.25400
C975        C  0.84028060  0.45424287  0.62539657     0.87900
C976        C  0.70393069  0.04806586  0.63539412     0.87900
C977        C  0.81069246  0.57206404  0.65440369     0.87900
C978        C  0.73313234  0.44110836  0.60982026     0.88100
O979        O  0.98097866  0.40874637  0.68806229    -0.74200
O980        O  0.55543161  0.41454752  0.77443095    -0.74300
O981        O  0.56584419  0.39104920  0.69097040    -0.74300
O982        O  0.46957481  0.42875729  0.77248397    -0.74400
O983        O  0.94602278  0.35609297  0.80283457    -0.74300
O984        O  0.04151879  0.31975334  0.72506151    -0.74300
O985        O  0.53143067  0.34293809  0.80715234    -0.74300
O986        O  0.95832151  0.33592336  0.71769408    -0.74300
Ni987      Ni  0.51859478  0.41351503  0.73042866     1.25400
Ni988      Ni  0.99362713  0.33613612  0.76425047     1.25400
C989        C  0.95763442  0.37210558  0.68809340     0.87900
C990        C  0.55639511  0.37954406  0.80482917     0.87900
C991        C  0.06902528  0.34767339  0.69575309     0.87900
C992        C  0.94212802  0.39877273  0.80054190     0.88100
O993        O  0.66974413  0.49311899  0.87228618    -0.74200
O994        O  0.75227402  0.07982276  0.90357249    -0.74300
O995        O  0.72212607  0.07346459  0.82816645    -0.74300
O996        O  0.70140946  0.00047276  0.94730706    -0.74400
O997        O  0.75779542  0.45973291  0.92527537    -0.74300
O998        O  0.77513151  0.52826837  0.80719950    -0.74300
O999        O  0.80681472  0.03771836  0.87979002    -0.74300
O1000       O  0.72439527  0.44927284  0.85338628    -0.74300
Ni1001     Ni  0.70912094  0.03810238  0.88855138     1.25400
Ni1002     Ni  0.76772336  0.49223870  0.86550253     1.25400
C1003       C  0.68303877  0.45518274  0.86109736     0.87900
C1004       C  0.79368480  0.07437234  0.89395973     0.87900
C1005       C  0.75562174  0.56511443  0.79989064     0.87900
C1006       C  0.72624846  0.46787203  0.95554460     0.88100
O1007       O  0.93392276  0.22000005  0.50727307    -0.74200
O1008       O  0.81904305  0.25129985  0.55201439    -0.74300
O1009       O  0.85549262  0.19688998  0.99349917    -0.74300
O1010       O  0.89735391  0.27663175  0.56854123    -0.74400
O1011       O  0.90356319  0.33604584  0.51225193    -0.74300
O1012       O  0.86576809  0.25590248  0.93608852    -0.74300
O1013       O  0.82719225  0.30957536  0.99398332    -0.74300
O1014       O  0.94302878  0.27982038  0.95104674    -0.74300
Ni1015     Ni  0.87652671  0.23441544  0.53271909     1.25400
Ni1016     Ni  0.88552420  0.29782594  0.97161664     1.25400
C1017       C  0.95200305  0.23937941  0.46701642     0.87900
C1018       C  0.80386106  0.28478377  0.02920997     0.87900
C1019       C  0.85677210  0.21283894  0.95152685     0.87900
C1020       C  0.90302298  0.32028699  0.55425354     0.88100
C1021       C  0.74844743  0.39299762  0.55962719    -0.21100
C1022       C  0.71424904  0.40518654  0.59123259    -0.09200
C1023       C  0.67565793  0.91761136  0.57640052     0.29700
C1024       C  0.67880286  0.93716010  0.03088830    -0.21100
C1025       C  0.71934207  0.43946285  0.00056178    -0.09200
C1026       C  0.75398205  0.41549823  0.01478849     0.29700
F1027       F  0.79375590  0.41603708  0.98695298    -0.19700
H1028       H  0.77684181  0.37863849  0.57091162     0.18100
H1029       H  0.65088130  0.95318375  0.02027086     0.18100
F1030       F  0.63925394  0.92299671  0.60694487    -0.19700
C1031       C  0.77412735  0.63185293  0.68273264    -0.21100
C1032       C  0.81597759  0.61553864  0.67027269    -0.09200
C1033       C  0.84278095  0.11327551  0.70229476     0.29700
C1034       C  0.82222682  0.10258012  0.74780551    -0.21100
C1035       C  0.77593076  0.59883759  0.75973561    -0.09200
C1036       C  0.75208561  0.61906750  0.72800929     0.29700
F1037       F  0.70768665  0.61940089  0.73876069    -0.19700
H1038       H  0.75438444  0.64041749  0.65728595     0.18100
H1039       H  0.84174329  0.09084197  0.77255533     0.18100
F1040       F  0.88604177  0.10647400  0.69021055    -0.19700
C1041       C  0.51088672  0.14017340  0.42709146    -0.21100
C1042       C  0.54955775  0.16689509  0.90427692    -0.09200
C1043       C  0.54172447  0.20819564  0.87785611     0.29700
C1044       C  0.00726991  0.23298926  0.89677440    -0.21100
C1045       C  0.97871779  0.21211265  0.93709320    -0.09200
C1046       C  0.97623774  0.16351510  0.44773121     0.29700
F1047       F  0.94377370  0.13968431  0.48040692    -0.19700
H1048       H  0.51230468  0.10402794  0.43965752     0.18100
H1049       H  0.00465130  0.26830452  0.88242514     0.18100
F1050       F  0.57389868  0.23018781  0.84374306    -0.19700
C1051       C  0.73385441  0.27295374  0.58489630    -0.21100
C1052       C  0.75819514  0.29347756  0.04221626    -0.09200
C1053       C  0.73710873  0.31891630  0.01056177     0.29700
C1054       C  0.69284374  0.32513606  0.02289773    -0.21100
C1055       C  0.66827706  0.29305941  0.05804554    -0.09200
C1056       C  0.68828160  0.27188479  0.59259456     0.29700
F1057       F  0.66481928  0.24057257  0.62706921    -0.19700
H1058       H  0.74944184  0.25319096  0.60980327     0.18100
H1059       H  0.67694070  0.34341141  0.99732141     0.18100
F1060       F  0.75845001  0.33679047  0.96776251    -0.19700
C1061       C  0.43221112  0.98043291  0.85748760    -0.21100
C1062       C  0.92136399  0.00754107  0.81939367    -0.09200
C1063       C  0.88977732  0.98920754  0.79817514     0.29700
C1064       C  0.87976505  0.44194419  0.80709352    -0.21100
C1065       C  0.90646459  0.41499713  0.83104618    -0.09200
C1066       C  0.42192299  0.43319353  0.86509173     0.30900
F1067       F  0.44047221  0.40574833  0.89534126    -0.19700
H1068       H  0.45347101  0.99430202  0.87706682     0.18100
H1069       H  0.86218572  0.42712200  0.78484484     0.18100
F1070       F  0.87497905  0.01461177  0.76372334    -0.19700
C1071       C  0.60641766  0.25225997  0.71314504    -0.21100
C1072       C  0.07105847  0.23550824  0.69595633    -0.09200
C1073       C  0.06350190  0.25948845  0.65439934     0.29700
C1074       C  0.08287316  0.30422909  0.63825311    -0.21100
C1075       C  0.10270076  0.32588502  0.66765068    -0.09200
C1076       C  0.62527775  0.29705810  0.69547032     0.29700
F1077       F  0.65400103  0.31584997  0.71691583    -0.19700
H1078       H  0.61639585  0.23305414  0.74240272     0.18100
H1079       H  0.07199796  0.32476567  0.61023463     0.18100
F1080       F  0.03455029  0.24215426  0.63221622    -0.19700
C1081       C  0.85606284  0.68085174  0.41864035     0.03300
C1082       C  0.89285436  0.68534529  0.38262892    -0.12800
C1083       C  0.89798531  0.65389007  0.35306387     0.00800
C1084       C  0.86567688  0.61767407  0.35915242    -0.11400
C1085       C  0.82768244  0.61238051  0.39358106     0.03300
C1086       C  0.82315371  0.64432736  0.42390688    -0.10800
H1087       H  0.91824395  0.71274016  0.37829750     0.08900
H1088       H  0.87034461  0.59312175  0.33642325     0.06400
H1089       H  0.79476476  0.64069512  0.45129241     0.06300
C1090       C  0.87405795  0.91923011  0.12075401     0.03300
C1091       C  0.89964652  0.91045106  0.15387792    -0.12800
C1092       C  0.92782219  0.87444546  0.15485839     0.00800
C1093       C  0.92912238  0.84488315  0.12252864    -0.11400
C1094       C  0.90464044  0.85313248  0.08748832     0.03300
C1095       C  0.87780986  0.89120790  0.08677050    -0.10800
H1096       H  0.89763471  0.93210606  0.17945605     0.08900
H1097       H  0.95014496  0.81660460  0.12372382     0.06400
H1098       H  0.85767027  0.89721416  0.06140357     0.06300
C1099       C  0.58761708  0.88050857  0.33686931     0.03300
C1100       C  0.58772841  0.84143235  0.36975511    -0.12800
C1101       C  0.61837504  0.83763299  0.39791846     0.00800
C1102       C  0.65041554  0.87431992  0.39307543    -0.11400
C1103       C  0.65037230  0.91559998  0.36199255     0.03300
C1104       C  0.61849507  0.91833464  0.33404504    -0.10800
H1105       H  0.56461649  0.81267076  0.37268317     0.08900
H1106       H  0.67441328  0.87144530  0.41469453     0.06400
H1107       H  0.61850185  0.94922039  0.30957717     0.06300
C1108       C  0.61467096  0.61159844  0.08632230     0.03300
C1109       C  0.65492895  0.59350158  0.09119142    -0.12800
C1110       C  0.66095669  0.56897266  0.13319660     0.00800
C1111       C  0.62574747  0.56447992  0.17125731    -0.11400
C1112       C  0.58476862  0.58195132  0.16634554     0.03300
C1113       C  0.57954293  0.60296128  0.12318999    -0.10800
H1114       H  0.68210568  0.59991703  0.06241508     0.08900
H1115       H  0.63036831  0.54831269  0.20430405     0.06400
H1116       H  0.54879407  0.61743378  0.11906905     0.06300
O1117       O  0.93217708  0.65743144  0.27617346    -0.74200
O1118       O  0.51222714  0.59969606  0.19569824    -0.74300
O1119       O  0.93958185  0.57307269  0.26188903    -0.74300
O1120       O  0.00612527  0.68556565  0.20843527    -0.74400
O1121       O  0.54911315  0.67422753  0.25920520    -0.74300
O1122       O  0.48322504  0.56012659  0.31194104    -0.74300
O1123       O  0.55717004  0.58870211  0.24454587    -0.74300
O1124       O  0.97459048  0.64475460  0.32751937    -0.74300
Ni1125     Ni  0.97115381  0.62960006  0.23378384     1.25400
Ni1126     Ni  0.51760840  0.61667534  0.28775752     1.25400
C1127       C  0.93760377  0.65491104  0.31694962     0.87900
C1128       C  0.54931751  0.58819913  0.20489542     0.87900
C1129       C  0.94906553  0.54922410  0.29702821     0.87900
C1130       C  0.04069332  0.69656170  0.22253004     0.88100
O1131       O  0.64149803  0.65432654  0.01125182    -0.74200
O1132       O  0.64884296  0.76906613  0.42874850    -0.74300
O1133       O  0.66887104  0.74034146  0.51025260    -0.74300
O1134       O  0.61769584  0.68190705  0.42856330    -0.74400
O1135       O  0.55368921  0.69190474  0.97153828    -0.74300
O1136       O  0.60382235  0.76186517  0.04248029    -0.74300
O1137       O  0.58096496  0.78163806  0.46144502    -0.74300
O1138       O  0.57903383  0.67323100  0.05090388    -0.74300
Ni1139     Ni  0.64666090  0.71057025  0.46834939     1.25400
Ni1140     Ni  0.57681993  0.72736675  0.00770693     1.25400
C1141       C  0.61105945  0.64711796  0.04689881     0.87900
C1142       C  0.61625644  0.79437326  0.43140078     0.87900
C1143       C  0.64518332  0.76217091  0.53778512     0.87900
C1144       C  0.57568062  0.67854719  0.43689538     0.88100
O1145       O  0.83602765  0.98414162  0.09118470    -0.74200
O1146       O  0.73456665  0.55588015  0.09983759    -0.74300
O1147       O  0.81686448  0.57075407  0.11226085    -0.74300
O1148       O  0.75331909  0.47488826  0.08056164    -0.74400
O1149       O  0.73206297  0.93818087  0.15195561    -0.74300
O1150       O  0.79244726  0.03764047  0.18434873    -0.74300
O1151       O  0.70956146  0.52090185  0.17094975    -0.74300
O1152       O  0.81449652  0.95306238  0.16398600    -0.74300
Ni1153     Ni  0.78648119  0.52258264  0.09356789     1.25400
Ni1154     Ni  0.76180279  0.98657372  0.17070588     1.25400
C1155       C  0.84027270  0.95424545  0.12539642     0.87900
C1156       C  0.70391630  0.54806489  0.13538633     0.87900
C1157       C  0.81068249  0.07206099  0.15440533     0.87900
C1158       C  0.73312941  0.94111266  0.10980258     0.88100
O1159       O  0.98096663  0.90874962  0.18807917    -0.74200
O1160       O  0.55542023  0.91453804  0.27444949    -0.74300
O1161       O  0.56583311  0.89105085  0.19098383    -0.74300
O1162       O  0.46956386  0.92874920  0.27250359    -0.74400
O1163       O  0.94601136  0.85608497  0.30284797    -0.74300
O1164       O  0.04151026  0.81975404  0.22506903    -0.74300
O1165       O  0.53141932  0.84292708  0.30716516    -0.74300
O1166       O  0.95831222  0.83592429  0.21770263    -0.74300
Ni1167     Ni  0.51858339  0.91351139  0.23044594     1.25400
Ni1168     Ni  0.99361702  0.83613181  0.26426094     1.25400
C1169       C  0.95762422  0.87210895  0.18810506     0.87900
C1170       C  0.55638382  0.87953218  0.30484524     0.87900
C1171       C  0.06901547  0.84767709  0.19576195     0.87900
C1172       C  0.94211702  0.89876455  0.30055986     0.88100
O1173       O  0.66973859  0.99310001  0.37229667    -0.74200
O1174       O  0.75227190  0.57980880  0.40359204    -0.74300
O1175       O  0.72211772  0.57345375  0.32819000    -0.74300
O1176       O  0.70140286  0.50046220  0.44732924    -0.74400
O1177       O  0.75778269  0.95971437  0.42529705    -0.74300
O1178       O  0.77512993  0.02824038  0.30721506    -0.74300
O1179       O  0.80680922  0.53770098  0.37980806    -0.74300
O1180       O  0.72438837  0.94924928  0.35340579    -0.74300
Ni1181     Ni  0.70911413  0.53809156  0.38857386     1.25400
Ni1182     Ni  0.76771657  0.99221508  0.36552134     1.25400
C1183       C  0.68303239  0.95516190  0.36111218     0.87900
C1184       C  0.79368226  0.57435649  0.39397620     0.87900
C1185       C  0.75562111  0.06508648  0.29990121     0.87900
C1186       C  0.72623422  0.96785739  0.45556283     0.88100
O1187       O  0.93392168  0.72001342  0.00726805    -0.74200
O1188       O  0.81904315  0.75131946  0.05200264    -0.74300
O1189       O  0.85549312  0.69687366  0.49350710    -0.74300
O1190       O  0.89735290  0.77664252  0.06853795    -0.74400
O1191       O  0.90356679  0.83606004  0.01225150    -0.74300
O1192       O  0.86576811  0.75588573  0.43609582    -0.74300
O1193       O  0.82719407  0.80956013  0.49398881    -0.74300
O1194       O  0.94302966  0.77980131  0.45105217    -0.74300
Ni1195     Ni  0.87652593  0.73443159  0.03271077     1.25400
Ni1196     Ni  0.88552573  0.79780897  0.47162192     1.25400
C1197       C  0.95200477  0.73939399  0.96701272     0.87900
C1198       C  0.80386301  0.78476933  0.52921607     0.87900
C1199       C  0.85677227  0.71282255  0.45153490     0.87900
C1200       C  0.90302433  0.82029798  0.05425304     0.88100
C1201       C  0.74845825  0.89300970  0.05960396    -0.21100
C1202       C  0.71425432  0.90519030  0.09120898    -0.09200
C1203       C  0.67567609  0.41760387  0.07637718     0.29700
C1204       C  0.67879587  0.43715708  0.53091348    -0.21100
C1205       C  0.71932300  0.93945170  0.50058254    -0.09200
C1206       C  0.75395781  0.91547978  0.51481173     0.29700
F1207       F  0.79373098  0.91600968  0.48697747    -0.19700
H1208       H  0.77685357  0.87865461  0.07088949     0.18100
H1209       H  0.65087601  0.45318548  0.52029738     0.18100
F1210       F  0.63926631  0.42297192  0.10692200    -0.19700
C1211       C  0.77412459  0.13184569  0.18274768    -0.21100
C1212       C  0.81597337  0.11553133  0.17028006    -0.09200
C1213       C  0.84276290  0.61327109  0.20230957     0.29700
C1214       C  0.82221427  0.60256767  0.24782141    -0.21100
C1215       C  0.77593067  0.09880685  0.25974419    -0.09200
C1216       C  0.75208418  0.11904727  0.22802353     0.29700
F1217       F  0.70768538  0.11938091  0.23877750    -0.19700
H1218       H  0.75438087  0.14042051  0.15730345     0.18100
H1219       H  0.84173447  0.59082427  0.27256669     0.18100
F1220       F  0.88602309  0.60647090  0.19021740    -0.19700
C1221       C  0.51088218  0.64018695  0.92708133    -0.21100
C1222       C  0.54955832  0.66687427  0.40428801    -0.09200
C1223       C  0.54172502  0.70817442  0.37786664     0.29700
C1224       C  0.00726966  0.73296797  0.39678141    -0.21100
C1225       C  0.97871770  0.71209244  0.43710053    -0.09200
C1226       C  0.97623655  0.66352906  0.94772609     0.29700
F1227       F  0.94377432  0.63969882  0.98040434    -0.19700
H1228       H  0.51229905  0.60404085  0.93964685     0.18100
H1229       H  0.00465004  0.76828255  0.38243063     0.18100
F1230       F  0.57389945  0.73016677  0.34375388    -0.19700
C1231       C  0.73385673  0.77297784  0.08488269    -0.21100
C1232       C  0.75819728  0.79346359  0.54222322    -0.09200
C1233       C  0.73710958  0.81890082  0.51056906     0.29700
C1234       C  0.69284398  0.82511843  0.52290545    -0.21100
C1235       C  0.66827877  0.79304090  0.55805355    -0.09200
C1236       C  0.68828386  0.77190551  0.09258051     0.29700
F1237       F  0.66482264  0.74059794  0.12706008    -0.19700
H1238       H  0.74944513  0.75322104  0.10979250     0.18100
H1239       H  0.67694001  0.84339268  0.49732956     0.18100
F1240       F  0.75844954  0.83677347  0.46776897    -0.19700
C1241       C  0.43219436  0.48044044  0.35748355    -0.21100
C1242       C  0.92135551  0.50754595  0.31938347    -0.09200
C1243       C  0.88977068  0.48920995  0.29816427     0.29700
C1244       C  0.87975533  0.94193539  0.30710606    -0.21100
C1245       C  0.90645158  0.91498819  0.33106317    -0.09200
C1246       C  0.42190876  0.93318761  0.36510510     0.30900
F1247       F  0.44044944  0.90574359  0.39536296    -0.19700
H1248       H  0.45345134  0.49431208  0.37706406     0.18100
H1249       H  0.86217317  0.92711046  0.28486120     0.18100
F1250       F  0.87498028  0.51460894  0.26370409    -0.19700
C1251       C  0.60641120  0.75226358  0.21314302    -0.21100
C1252       C  0.07105083  0.73551550  0.19595309    -0.09200
C1253       C  0.06349247  0.75949925  0.15439819     0.29700
C1254       C  0.08286299  0.80424065  0.13825501    -0.21100
C1255       C  0.10269110  0.82589340  0.16765432    -0.09200
C1256       C  0.62527063  0.79706241  0.19547012     0.29700
F1257       F  0.65399858  0.81585186  0.21691206    -0.19700
H1258       H  0.61639142  0.73305554  0.24239845     0.18100
H1259       H  0.07198650  0.82477958  0.11023858     0.18100
F1260       F  0.03453984  0.74216773  0.13221464    -0.19700
C1261       C  0.85606319  0.68087433  0.91862905     0.03300
C1262       C  0.89285641  0.68536517  0.88261937    -0.12800
C1263       C  0.89798797  0.65390744  0.85305654     0.00800
C1264       C  0.86567911  0.61769281  0.85914467    -0.11400
C1265       C  0.82768312  0.61240177  0.89357027     0.03300
C1266       C  0.82315313  0.64435043  0.92389469    -0.10800
H1267       H  0.91824659  0.71275889  0.87828822     0.08900
H1268       H  0.87034820  0.59313884  0.83641715     0.06400
H1269       H  0.79476284  0.64071958  0.95127881     0.06300
C1270       C  0.87406283  0.91921863  0.62075151     0.03300
C1271       C  0.89965478  0.91044165  0.65387218    -0.12800
C1272       C  0.92782975  0.87443578  0.65485195     0.00800
C1273       C  0.92912695  0.84487147  0.62252490    -0.11400
C1274       C  0.90464157  0.85311841  0.58748783     0.03300
C1275       C  0.87781035  0.89119351  0.58677052    -0.10800
H1276       H  0.89764615  0.93209866  0.67944863     0.08900
H1277       H  0.95014993  0.81659313  0.62371951     0.06400
H1278       H  0.85766744  0.89719747  0.56140641     0.06300
C1279       C  0.58762742  0.88051726  0.83685509     0.03300
C1280       C  0.58773537  0.84144388  0.86974459    -0.12800
C1281       C  0.61837973  0.83764629  0.89790974     0.00800
C1282       C  0.65042091  0.87433329  0.89306590    -0.11400
C1283       C  0.65038042  0.91561153  0.86197907     0.03300
C1284       C  0.61850579  0.91834347  0.83402878    -0.10800
H1285       H  0.56462258  0.81268219  0.87267397     0.08900
H1286       H  0.67441731  0.87146003  0.91468641     0.06400
H1287       H  0.61851463  0.94922705  0.80955767     0.06300
C1288       C  0.61467668  0.61158856  0.58633269     0.03300
C1289       C  0.65493601  0.59349664  0.59120366    -0.12800
C1290       C  0.66096432  0.56896951  0.63320932     0.00800
C1291       C  0.62575388  0.56447514  0.67126943    -0.11400
C1292       C  0.58477342  0.58194227  0.66635575     0.03300
C1293       C  0.57954756  0.60294826  0.62319895    -0.10800
H1294       H  0.68211339  0.59991454  0.56242779     0.08900
H1295       H  0.63037490  0.54830997  0.70431681     0.06400
H1296       H  0.54879745  0.61741669  0.61907583     0.06300
O1297       O  0.93218118  0.65743667  0.77616922    -0.74200
O1298       O  0.51223076  0.59968770  0.69570391    -0.74300
O1299       O  0.93958171  0.57307340  0.76189548    -0.74300
O1300       O  0.00613003  0.68555992  0.70843223    -0.74400
O1301       O  0.54911624  0.67422879  0.75920211    -0.74300
O1302       O  0.48322342  0.56013315  0.81194807    -0.74300
O1303       O  0.55717158  0.58869969  0.74455402    -0.74300
O1304       O  0.97459183  0.64476306  0.82751810    -0.74300
Ni1305     Ni  0.97115648  0.62959751  0.73378550     1.25400
Ni1306     Ni  0.51760929  0.61667963  0.78775956     1.25400
C1307       C  0.93760709  0.65492211  0.81694509     0.87900
C1308       C  0.54932065  0.58819216  0.70490368     0.87900
C1309       C  0.94906396  0.54922679  0.79703636     0.87900
C1310       C  0.04069731  0.69655731  0.72252734     0.88100
O1311       O  0.64150258  0.65431645  0.51126188    -0.74200
O1312       O  0.64884327  0.76907679  0.92873895    -0.74300
O1313       O  0.66886965  0.74035167  0.01024269    -0.74300
O1314       O  0.61769177  0.68191870  0.92855305    -0.74400
O1315       O  0.55369247  0.69189009  0.47154901    -0.74300
O1316       O  0.60382321  0.76185402  0.54248979    -0.74300
O1317       O  0.58096631  0.78165209  0.96143544    -0.74300
O1318       O  0.57903789  0.67321935  0.55091446    -0.74300
Ni1319     Ni  0.64665830  0.71058064  0.96833952     1.25400
Ni1320     Ni  0.57682170  0.72735391  0.50771705     1.25400
C1321       C  0.61106424  0.64710733  0.54690913     0.87900
C1322       C  0.61625875  0.79438637  0.93139213     0.87900
C1323       C  0.64518257  0.76218287  0.03777415     0.87900
C1324       C  0.57567646  0.67856067  0.93688493     0.88100
O1325       O  0.83603292  0.98413066  0.59118366    -0.74200
O1326       O  0.73457248  0.55587626  0.59984657    -0.74300
O1327       O  0.81687523  0.57074951  0.61225507    -0.74300
O1328       O  0.75331615  0.47488139  0.58057521    -0.74400
O1329       O  0.73206856  0.93817840  0.65196935    -0.74300
O1330       O  0.79246800  0.03763865  0.68434601    -0.74300
O1331       O  0.70957444  0.52090448  0.67096210    -0.74300
O1332       O  0.81450774  0.95305610  0.66398687    -0.74300
Ni1333     Ni  0.78648503  0.52257647  0.59357178     1.25400
Ni1334     Ni  0.76181657  0.98657137  0.67071130     1.25400
C1335       C  0.84027968  0.95423568  0.62539541     0.87900
C1336       C  0.70392531  0.54806390  0.63539810     0.87900
C1337       C  0.81069991  0.07205758  0.65439864     0.87900
C1338       C  0.73312903  0.94110723  0.60981763     0.88100
O1339       O  0.98097740  0.90874244  0.68806492    -0.74200
O1340       O  0.55543328  0.91454095  0.77443215    -0.74300
O1341       O  0.56584406  0.89104685  0.69096978    -0.74300
O1342       O  0.46957689  0.92875055  0.77248817    -0.74400
O1343       O  0.94602413  0.85608619  0.80283565    -0.74300
O1344       O  0.04152107  0.81975012  0.72505991    -0.74300
O1345       O  0.53143242  0.84293119  0.80715269    -0.74300
O1346       O  0.95832284  0.83591828  0.71769421    -0.74300
Ni1347     Ni  0.51859544  0.91351015  0.73043072     1.25400
Ni1348     Ni  0.99362870  0.83613061  0.76425028     1.25400
C1349       C  0.95763425  0.87210119  0.68809495     0.87900
C1350       C  0.55639635  0.87953726  0.80483023     0.87900
C1351       C  0.06902595  0.84767136  0.69575072     0.87900
C1352       C  0.94213004  0.89876593  0.80054516     0.88100
O1353       O  0.66974592  0.99311274  0.87228112    -0.74200
O1354       O  0.75227388  0.57982682  0.90357810    -0.74300
O1355       O  0.72212237  0.57347292  0.82817374    -0.74300
O1356       O  0.70141179  0.50047477  0.94731097    -0.74400
O1357       O  0.75779419  0.95973010  0.92527715    -0.74300
O1358       O  0.77513438  0.02825734  0.80719713    -0.74300
O1359       O  0.80681420  0.53772360  0.87979172    -0.74300
O1360       O  0.72439664  0.94926378  0.85338843    -0.74300
Ni1361     Ni  0.70912003  0.53810741  0.88855715     1.25400
Ni1362     Ni  0.76772428  0.99223167  0.86550259     1.25400
C1363       C  0.68304032  0.95517472  0.86109673     0.87900
C1364       C  0.79368465  0.57437704  0.89396273     0.87900
C1365       C  0.75562561  0.06510361  0.79988507     0.87900
C1366       C  0.72624568  0.96787051  0.95554408     0.88100
O1367       O  0.93392401  0.71999639  0.50727361    -0.74200
O1368       O  0.81904447  0.75129792  0.55201241    -0.74300
O1369       O  0.85549116  0.69689561  0.99349685    -0.74300
O1370       O  0.89735462  0.77662672  0.56854225    -0.74400
O1371       O  0.90356546  0.83604204  0.51225383    -0.74300
O1372       O  0.86577145  0.75590853  0.93608629    -0.74300
O1373       O  0.82719607  0.80958282  0.99397976    -0.74300
O1374       O  0.94303186  0.77982024  0.95104836    -0.74300
Ni1375     Ni  0.87652793  0.73441244  0.53271837     1.25400
Ni1376     Ni  0.88552813  0.79782977  0.97161581     1.25400
C1377       C  0.95200533  0.73937648  0.46701751     0.87900
C1378       C  0.80386322  0.78479149  0.02920565     0.87900
C1379       C  0.85677295  0.71284529  0.95152429     0.87900
C1380       C  0.90302436  0.82028195  0.55425528     0.88100
C1381       C  0.74844032  0.89299512  0.55962552    -0.21100
C1382       C  0.71424300  0.90518636  0.59123048    -0.09200
C1383       C  0.67566324  0.41760953  0.57640322     0.29700
C1384       C  0.67880882  0.43715801  0.03088924    -0.21100
C1385       C  0.71933678  0.93946293  0.00056232    -0.09200
C1386       C  0.75397507  0.91549715  0.01479131     0.29700
F1387       F  0.79375019  0.91603591  0.98695811    -0.19700
H1388       H  0.77683398  0.87863492  0.57091018     0.18100
H1389       H  0.65088633  0.45318084  0.02027347     0.18100
F1390       F  0.63925953  0.42299483  0.60694797    -0.19700
C1391       C  0.77413759  0.13184709  0.68272651    -0.21100
C1392       C  0.81598750  0.11553190  0.67026741    -0.09200
C1393       C  0.84277295  0.61328507  0.70229807     0.29700
C1394       C  0.82222095  0.60259260  0.74780946    -0.21100
C1395       C  0.77593644  0.09882495  0.75972917    -0.09200
C1396       C  0.75209308  0.11905670  0.72800181     0.29700
F1397       F  0.70769378  0.11938756  0.73874999    -0.19700
H1398       H  0.75439668  0.14041472  0.65727876     0.18100
H1399       H  0.84173904  0.59085455  0.77255823     0.18100
F1400       F  0.88603356  0.60648331  0.69021229    -0.19700
C1401       C  0.51088806  0.64017156  0.42709055    -0.21100
C1402       C  0.54955307  0.66688816  0.90427804    -0.09200
C1403       C  0.54172025  0.70818846  0.87785656     0.29700
C1404       C  0.00726645  0.73298369  0.89677502    -0.21100
C1405       C  0.97871519  0.71210903  0.93709514    -0.09200
C1406       C  0.97624040  0.66351261  0.44773115     0.29700
F1407       F  0.94377758  0.63968149  0.48040795    -0.19700
H1408       H  0.51230608  0.60402613  0.43965604     0.18100
H1409       H  0.00464846  0.76829890  0.88242461     0.18100
F1410       F  0.57389402  0.73017908  0.84374222    -0.19700
C1411       C  0.73385735  0.77295413  0.58489484    -0.21100
C1412       C  0.75819693  0.79348460  0.04221023    -0.09200
C1413       C  0.73710927  0.81891803  0.01055362     0.29700
C1414       C  0.69284286  0.82513264  0.02288764    -0.21100
C1415       C  0.66827826  0.79305700  0.05803822    -0.09200
C1416       C  0.68828450  0.77188354  0.59259342     0.29700
F1417       F  0.66482338  0.74057113  0.62706857    -0.19700
H1418       H  0.74944547  0.75319330  0.60980232     0.18100
H1419       H  0.67693865  0.84340322  0.99731000     0.18100
F1420       F  0.75845086  0.83679179  0.96775439    -0.19700
C1421       C  0.43219939  0.48044076  0.85748392    -0.21100
C1422       C  0.92135468  0.50754792  0.81939043    -0.09200
C1423       C  0.88977087  0.48921340  0.79816919     0.29700
C1424       C  0.87976853  0.94193870  0.80710154    -0.21100
C1425       C  0.90646871  0.91499028  0.83105204    -0.09200
C1426       C  0.42193248  0.93318592  0.86509677     0.30900
F1427       F  0.44048338  0.90574013  0.89534437    -0.19700
H1428       H  0.45345676  0.49431064  0.87706520     0.18100
H1429       H  0.86218583  0.92711694  0.78485509     0.18100
F1430       F  0.87497387  0.51461736  0.76371625    -0.19700
C1431       C  0.60641827  0.75225819  0.71313409    -0.21100
C1432       C  0.07105555  0.73550892  0.69594820    -0.09200
C1433       C  0.06349630  0.75949141  0.65439320     0.29700
C1434       C  0.08286896  0.80423155  0.63824719    -0.21100
C1435       C  0.10269988  0.82588503  0.66764403    -0.09200
C1436       C  0.62527944  0.79705592  0.69545925     0.29700
F1437       F  0.65400940  0.81584469  0.71689941    -0.19700
H1438       H  0.61639881  0.73305026  0.74238927     0.18100
H1439       H  0.07199213  0.82477013  0.61023058     0.18100
F1440       F  0.03454044  0.74216047  0.63221277    -0.19700
loop_ 
_geom_bond_atom_site_label_1 
_geom_bond_atom_site_label_2 
_geom_bond_distance 
_geom_bond_site_symmetry_2 
_ccdc_geom_bond_type 
C1            C2   1.413       .  A
C1            C6   1.427       .  A
C1          C119   1.493       .  S
C2            C3   1.395       .  A
C2            H7   1.083       .  S
C3            C4   1.404       .  A
C3           C47   1.485       .  S
C4            C5   1.409       .  A
C4            H8   1.082       .  S
C5            C6   1.423       .  A
C5          C104   1.511       .  S
C6            H9   1.083       .  S
C10          C11   1.400       .  A
C10          C15   1.424       .  A
C10          C75   1.509       .  S
C11          C12   1.407       .  A
C11          H16   1.085       .  S
C12          C13   1.421       .  A
C12          C89   1.495       .  S
C13          C14   1.423       .  A
C13          H17   1.083       .  S
C14          C15   1.429       .  A
C14         C120   1.524       .  S
C15          H18   1.083       .  S
C19          C20   1.404       .  A
C19          C24   1.427       .  A
C19          C90   1.506       .  S
C20          C21   1.396       .  A
C20          H25   1.073       .  S
C21          C22   1.414       .  A
C21          C62   1.494       .  S
C22          C23   1.421       .  A
C22          H26   1.083       .  S
C23          C24   1.422       .  A
C23         C103   1.513       .  S
C24          H27   1.083       .  S
C28          C29   1.404       .  A
C28          C33   1.394       .  A
C28          C61   1.489       .  S
C29          C30   1.417       .  A
C29          H34   1.083       .  S
C30          C31   1.422       .  A
C30          C76   1.502       .  S
C31          C32   1.418       .  A
C31          H35   1.083       .  S
C32          C33   1.405       .  A
C32          C48   1.494       .  S
C33          H36   1.083       .  S
O37         Ni45   1.913       .  S
O37          C47   1.280       .  A
O38        Ni765   1.907   1_455  S
O38          C48   1.283       .  A
O39         Ni45   1.893       .  S
O39          C49   1.276       .  A
O40         Ni45   1.909       .  S
O40          C50   1.280       .  A
O41         Ni46   1.919       .  S
O41         C770   1.283       .  A
O42         Ni46   1.910   1_655  S
O42         C769   1.282       .  A
O43         Ni46   1.941       .  S
O43          C48   1.284       .  A
O44        Ni766   1.939       .  S
O44          C47   1.285       .  A
Ni45        O758   1.907       .  S
Ni45       Ni766   2.386       .  S
Ni46        O764   1.939   1_455  S
Ni46       Ni765   2.386   1_455  S
C49         C162   1.466       .  S
C49         O762   1.282       .  A
C50         C172   1.482       .  S
C50         O761   1.283       .  A
O51        Ni239   1.925   1_554  S
O51          C61   1.282       .  A
O52         Ni59   1.935       .  S
O52          C62   1.282       .  A
O53         Ni59   1.886       .  S
O53          C63   1.285       .  A
O54         Ni59   1.925       .  S
O54          C64   1.278       .  A
O55         Ni60   1.862   1_556  S
O55         C244   1.277       .  A
O56         Ni60   1.873       .  S
O56         C243   1.265       .  A
O57        Ni240   1.942       .  S
O57          C62   1.288       .  A
O58         Ni60   1.916       .  S
O58          C61   1.285       .  A
Ni59        O231   1.925       .  S
Ni59       Ni240   2.386       .  S
Ni60        O237   1.942   1_554  S
Ni60       Ni239   2.386   1_554  S
C63         C155   1.428       .  S
C63         O236   1.265       .  A
C64         C142   1.473       .  S
C64         O235   1.277       .  A
O65        Ni433   1.949       .  S
O65          C75   1.286       .  A
O66         Ni73   1.919       .  S
O66          C76   1.284       .  A
O67         Ni73   1.903       .  S
O67         C437   1.274       .  A
O68         Ni73   1.855   1_565  S
O68         C438   1.279       .  A
O69         Ni74   1.899       .  S
O69          C78   1.271       .  A
O70         Ni74   1.901       .  S
O70          C77   1.284       .  A
O71        Ni434   1.949   1_545  S
O71          C76   1.287       .  A
O72         Ni74   1.944       .  S
O72          C75   1.288       .  A
Ni73        O425   1.949   1_545  S
Ni73       Ni434   2.389   1_545  S
Ni74        O431   1.949       .  S
Ni74       Ni433   2.389       .  S
C77         C132   1.464       .  S
C77         O427   1.274       .  A
C78         C122   1.441       .  S
C78         O428   1.279       .  A
O79        Ni807   1.920       .  S
O79          C89   1.281       .  A
O80         Ni87   1.928       .  S
O80          C90   1.279       .  A
O81         Ni87   1.929       .  S
O81         C811   1.280       .  A
O82         Ni87   1.918   1_655  S
O82         C812   1.290       .  A
O83         Ni88   1.888       .  S
O83          C92   1.267       .  A
O84         Ni88   1.859       .  S
O84          C91   1.275       .  A
O85        Ni808   1.948   1_455  S
O85          C90   1.292       .  A
O86         Ni88   1.956       .  S
O86          C89   1.288       .  A
Ni87        O799   1.920   1_455  S
Ni87       Ni808   2.388   1_455  S
Ni88        O805   1.948       .  S
Ni88       Ni807   2.388       .  S
C91         C175   1.464       .  S
C91         O801   1.280       .  A
C92         C165   1.458       .  S
C92         O802   1.290       .  A
O93        Ni461   1.960       .  S
O93         C103   1.289       .  A
O94        Ni101   1.956       .  S
O94         C104   1.287       .  A
O95        Ni101   1.928       .  S
O95         C465   1.281       .  A
O96        Ni101   1.919       .  S
O96         C466   1.283   1_545  A
O97        Ni102   1.883       .  S
O97         C106   1.274       .  A
O98        Ni102   1.889       .  S
O98         C105   1.278       .  A
O99        Ni462   1.936   1_545  S
O99         C104   1.287       .  A
O100       Ni102   1.944       .  S
O100        C103   1.286       .  A
Ni101       O453   1.960   1_545  S
Ni101      Ni462   2.384   1_545  S
Ni102       O459   1.936       .  S
Ni102      Ni461   2.384       .  S
C105        C135   1.468       .  S
C105        O455   1.281       .  A
C106        C125   1.463       .  S
C106        O456   1.283       .  A
O107       Ni115   1.900       .  S
O107        C117   1.280   1_554  A
O108       Ni115   1.886       .  S
O108        C298   1.276       .  A
O109       Ni295   1.945       .  S
O109        C119   1.285       .  A
O110       Ni115   1.960       .  S
O110        C120   1.290       .  A
O111       Ni296   1.954   1_554  S
O111        C120   1.289       .  A
O112       Ni116   1.933       .  S
O112        C119   1.286       .  A
O113       Ni116   1.879       .  S
O113        C118   1.275       .  A
O114       Ni116   1.906       .  S
O114        C297   1.280       .  A
Ni115       O289   1.945   1_554  S
Ni115      Ni296   2.388   1_554  S
Ni116       O291   1.954       .  S
Ni116      Ni295   2.388       .  S
C117        C325   1.479       .  S
C117        O294   1.280       .  A
C118        C152   1.444       .  S
C118        O288   1.276       .  A
C121        C122   1.396       .  A
C121        C306   1.397       .  A
C121        H128   1.084       .  S
C122        C483   1.402       .  A
C123        C482   1.402       .  A
C123        C304   1.399       .  A
C123        F130   1.356       .  S
C124        C303   1.399       .  A
C124        C485   1.407       .  A
C124        H129   1.083       .  S
C125        C126   1.410       .  A
C125        C484   1.407       .  A
C126        C301   1.397       .  A
C126        F127   1.359       .  S
C131        C132   1.411       .  A
C131        C136   1.405       .  A
C131        H138   1.084       .  S
C132        C493   1.396       .  A
C133        C134   1.395       .  A
C133        C492   1.396       .  A
C133        F140   1.357       .  S
C134        C495   1.410       .  A
C134        H139   1.080       .  S
C135        C136   1.402       .  A
C135        C494   1.410       .  A
C136        F137   1.357       .  S
C141        C322   1.407       .  A
C141        C866   1.407   1_455  A
C141        H148   1.083       .  S
C142        C143   1.408       .  A
C142        C321   1.407       .  A
C143        C864   1.410       .  A
C143        F150   1.356       .  S
C144        C145   1.407       .  A
C144        C863   1.410       .  A
C144        H149   1.079       .  S
C145        C326   1.419       .  A
C145        C297   1.479       .  S
C146        C861   1.407       .  A
C146        C325   1.419       .  A
C146        F147   1.357       .  S
C151        C156   1.389       .  A
C151        C332   1.404       .  A
C151        H158   1.083       .  S
C152        C153   1.405       .  A
C152        C331   1.404       .  A
C153        C154   1.383       .  A
C153        F160   1.359       .  S
C154        C155   1.391       .  A
C154        H159   1.085       .  S
C155        C336   1.399       .  A
C156        C335   1.399       .  A
C156        F157   1.355       .  S
C161        C882   1.407   1_565  A
C161        C526   1.395       .  A
C161        H168   1.083       .  S
C162        C163   1.412   1_545  A
C162        C881   1.407   1_545  A
C163        C524   1.393       .  A
C163        F170   1.356   1_565  S
C164        C165   1.398       .  A
C164        C523   1.393       .  A
C164        H169   1.084       .  S
C165        C886   1.400       .  A
C166        C521   1.395       .  A
C166        C885   1.400       .  A
C166        F167   1.357       .  S
C171        C176   1.407       .  A
C171        C892   1.411       .  A
C171        H178   1.083       .  S
C172        C173   1.416       .  A
C172        C891   1.411       .  A
C173        C174   1.404       .  A
C173        F180   1.357       .  S
C174        C175   1.403       .  A
C174        H179   1.083       .  S
C175        C896   1.408       .  A
C176        C895   1.408       .  A
C176        F177   1.356       .  S
C181        C182   1.413       .  A
C181        C186   1.427       .  A
C181        C299   1.493       .  S
C182        C183   1.395       .  A
C182        H187   1.083       .  S
C183        C184   1.404       .  A
C183        C227   1.485       .  S
C184        C185   1.409       .  A
C184        H188   1.082       .  S
C185        C186   1.423       .  A
C185        C284   1.511       .  S
C186        H189   1.083       .  S
C190        C191   1.400       .  A
C190        C195   1.424       .  A
C190        C255   1.509       .  S
C191        C192   1.407       .  A
C191        H196   1.085       .  S
C192        C193   1.421       .  A
C192        C269   1.495       .  S
C193        C194   1.423       .  A
C193        H197   1.083       .  S
C194        C195   1.429       .  A
C194        C300   1.524       .  S
C195        H198   1.083       .  S
C199        C200   1.404       .  A
C199        C204   1.427       .  A
C199        C270   1.506       .  S
C200        C201   1.396       .  A
C200        H205   1.073       .  S
C201        C202   1.414       .  A
C201        C242   1.494       .  S
C202        C203   1.421       .  A
C202        H206   1.084       .  S
C203        C204   1.422       .  A
C203        C283   1.513       .  S
C204        H207   1.083       .  S
C208        C209   1.404       .  A
C208        C213   1.394       .  A
C208        C241   1.489       .  S
C209        C210   1.417       .  A
C209        H214   1.083       .  S
C210        C211   1.422       .  A
C210        C256   1.502       .  S
C211        C212   1.418       .  A
C211        H215   1.083       .  S
C212        C213   1.405       .  A
C212        C228   1.494       .  S
C213        H216   1.083       .  S
O217       Ni225   1.913       .  S
O217        C227   1.280       .  A
O218       Ni945   1.907   1_455  S
O218        C228   1.283       .  A
O219       Ni225   1.893       .  S
O219        C229   1.276       .  A
O220       Ni225   1.909       .  S
O220        C230   1.280       .  A
O221       Ni226   1.919       .  S
O221        C950   1.283       .  A
O222       Ni226   1.910   1_655  S
O222        C949   1.282       .  A
O223       Ni226   1.941       .  S
O223        C228   1.284       .  A
O224       Ni946   1.939       .  S
O224        C227   1.285       .  A
Ni225       O938   1.907       .  S
Ni225      Ni946   2.386       .  S
Ni226       O944   1.939   1_455  S
Ni226      Ni945   2.386   1_455  S
C229        C342   1.466       .  S
C229        O942   1.282       .  A
C230        C352   1.482       .  S
C230        O941   1.283       .  A
O231        C241   1.282       .  A
O232       Ni239   1.935       .  S
O232        C242   1.282       .  A
O233       Ni239   1.886   1_554  S
O233        C243   1.285       .  A
O234       Ni239   1.925       .  S
O234        C244   1.278       .  A
O235       Ni240   1.862       .  S
O236       Ni240   1.873       .  S
O237        C242   1.288       .  A
O238       Ni240   1.916       .  S
O238        C241   1.285       .  A
C243        C335   1.428       .  S
C244        C322   1.473       .  S
O245       Ni613   1.949       .  S
O245        C255   1.286       .  A
O246       Ni253   1.919       .  S
O246        C256   1.284       .  A
O247       Ni253   1.903       .  S
O247        C617   1.274       .  A
O248       Ni253   1.855   1_565  S
O248        C618   1.279       .  A
O249       Ni254   1.899       .  S
O249        C258   1.271       .  A
O250       Ni254   1.901       .  S
O250        C257   1.284       .  A
O251       Ni614   1.949   1_545  S
O251        C256   1.287       .  A
O252       Ni254   1.944       .  S
O252        C255   1.288       .  A
Ni253       O605   1.949   1_545  S
Ni253      Ni614   2.389   1_545  S
Ni254       O611   1.949       .  S
Ni254      Ni613   2.389       .  S
C257        C312   1.464       .  S
C257        O607   1.274       .  A
C258        C302   1.441       .  S
C258        O608   1.279       .  A
O259       Ni987   1.920       .  S
O259        C269   1.281       .  A
O260       Ni267   1.928       .  S
O260        C270   1.279       .  A
O261       Ni267   1.929       .  S
O261        C991   1.280       .  A
O262       Ni267   1.918   1_655  S
O262        C992   1.290       .  A
O263       Ni268   1.888       .  S
O263        C272   1.267       .  A
O264       Ni268   1.859       .  S
O264        C271   1.275       .  A
O265       Ni988   1.948   1_455  S
O265        C270   1.292       .  A
O266       Ni268   1.956       .  S
O266        C269   1.288       .  A
Ni267       O979   1.920   1_455  S
Ni267      Ni988   2.388   1_455  S
Ni268       O985   1.948       .  S
Ni268      Ni987   2.388       .  S
C271        C355   1.464       .  S
C271        O981   1.280       .  A
C272        C345   1.458       .  S
C272        O982   1.290       .  A
O273       Ni641   1.960       .  S
O273        C283   1.289       .  A
O274       Ni281   1.956       .  S
O274        C284   1.287       .  A
O275       Ni281   1.928       .  S
O275        C645   1.281       .  A
O276       Ni281   1.919       .  S
O276        C646   1.283   1_545  A
O277       Ni282   1.883       .  S
O277        C286   1.274       .  A
O278       Ni282   1.889       .  S
O278        C285   1.278       .  A
O279       Ni642   1.936   1_545  S
O279        C284   1.287       .  A
O280       Ni282   1.944       .  S
O280        C283   1.286       .  A
Ni281       O633   1.960   1_545  S
Ni281      Ni642   2.384   1_545  S
Ni282       O639   1.936       .  S
Ni282      Ni641   2.384       .  S
C285        C315   1.468       .  S
C285        O635   1.281       .  A
C286        C305   1.463   1_556  S
C286        O636   1.283       .  A
O287       Ni295   1.900       .  S
O287        C297   1.280       .  A
O288       Ni295   1.886       .  S
O289        C299   1.285       .  A
O290       Ni295   1.960       .  S
O290        C300   1.290       .  A
O291        C300   1.289       .  A
O292       Ni296   1.933       .  S
O292        C299   1.286       .  A
O293       Ni296   1.879       .  S
O293        C298   1.275   1_556  A
O294       Ni296   1.906       .  S
C298        C332   1.444       .  S
C301        C302   1.396       .  A
C301        H308   1.084       .  S
C302        C663   1.402       .  A
C303        C662   1.402       .  A
C303        F310   1.356       .  S
C304        C665   1.407       .  A
C304        H309   1.083       .  S
C305        C664   1.407       .  A
C305        C306   1.410       .  A
C306        F307   1.359   1_554  S
C311        C312   1.411       .  A
C311        C316   1.405       .  A
C311        H318   1.084       .  S
C312        C673   1.396       .  A
C313        C672   1.396       .  A
C313        C314   1.395       .  A
C313        F320   1.357       .  S
C314        C675   1.410       .  A
C314        H319   1.080       .  S
C315        C674   1.410       .  A
C315        C316   1.402       .  A
C316        F317   1.357       .  S
C321       C1046   1.407   1_455  A
C321        H328   1.083       .  S
C322        C323   1.408       .  A
C323       C1044   1.410       .  A
C323        F330   1.356       .  S
C324       C1043   1.410       .  A
C324        C325   1.407       .  A
C324        H329   1.079       .  S
C326       C1041   1.407       .  A
C326        F327   1.357       .  S
C331        C336   1.389       .  A
C331        H338   1.083       .  S
C332        C333   1.405       .  A
C333        C334   1.383       .  A
C333        F340   1.359   1_554  S
C334        C335   1.391       .  A
C334        H339   1.085   1_554  S
C336        F337   1.355       .  S
C341       C1062   1.407   1_565  A
C341        C706   1.395       .  A
C341        H348   1.083       .  S
C342       C1061   1.407   1_545  A
C342        C343   1.412   1_545  A
C343        C704   1.393       .  A
C343        F350   1.356   1_565  S
C344        C703   1.393       .  A
C344        C345   1.398       .  A
C344        H349   1.084       .  S
C345       C1066   1.400       .  A
C346        C701   1.395       .  A
C346       C1065   1.400       .  A
C346        F347   1.357       .  S
C351       C1072   1.411       .  A
C351        C356   1.407       .  A
C351        H358   1.083       .  S
C352       C1071   1.411       .  A
C352        C353   1.416       .  A
C353        C354   1.404       .  A
C353        F360   1.357       .  S
C354        C355   1.403       .  A
C354        H359   1.083       .  S
C355       C1076   1.408       .  A
C356       C1075   1.408       .  A
C356        F357   1.356       .  S
C361        C362   1.413       .  A
C361        C366   1.427       .  A
C361        C479   1.493       .  S
C362        C363   1.395       .  A
C362        H367   1.083       .  S
C363        C364   1.404       .  A
C363        C407   1.485       .  S
C364        C365   1.409       .  A
C364        H368   1.082       .  S
C365        C366   1.423       .  A
C365        C464   1.511       .  S
C366        H369   1.083       .  S
C370        C371   1.400       .  A
C370        C375   1.424       .  A
C370        C435   1.509       .  S
C371        C372   1.407       .  A
C371        H376   1.085       .  S
C372        C373   1.421       .  A
C372        C449   1.495       .  S
C373        C374   1.423       .  A
C373        H377   1.083       .  S
C374        C375   1.429       .  A
C374        C480   1.524       .  S
C375        H378   1.083       .  S
C379        C380   1.404       .  A
C379        C384   1.427       .  A
C379        C450   1.506       .  S
C380        C381   1.396       .  A
C380        H385   1.073       .  S
C381        C382   1.414       .  A
C381        C422   1.494       .  S
C382        C383   1.421       .  A
C382        H386   1.084       .  S
C383        C384   1.422       .  A
C383        C463   1.513       .  S
C384        H387   1.083       .  S
C388        C389   1.404       .  A
C388        C393   1.394       .  A
C388        C421   1.489       .  S
C389        C390   1.417       .  A
C389        H394   1.083       .  S
C390        C391   1.422       .  A
C390        C436   1.502       .  S
C391        C392   1.418       .  A
C391        H395   1.083       .  S
C392        C393   1.405       .  A
C392        C408   1.494       .  S
C393        H396   1.083       .  S
O397       Ni405   1.913       .  S
O397        C407   1.280       .  A
O398      Ni1125   1.907   1_455  S
O398        C408   1.283       .  A
O399       Ni405   1.893       .  S
O399        C409   1.276       .  A
O400       Ni405   1.909       .  S
O400        C410   1.280       .  A
O401       Ni406   1.919       .  S
O401       C1130   1.283       .  A
O402       Ni406   1.910   1_655  S
O402       C1129   1.282       .  A
O403       Ni406   1.941       .  S
O403        C408   1.284       .  A
O404      Ni1126   1.939       .  S
O404        C407   1.285       .  A
Ni405      O1118   1.907       .  S
Ni405     Ni1126   2.386       .  S
Ni406      O1124   1.939   1_455  S
Ni406     Ni1125   2.386   1_455  S
C409        C522   1.466       .  S
C409       O1122   1.282       .  A
C410        C532   1.482       .  S
C410       O1121   1.283       .  A
O411       Ni599   1.925   1_554  S
O411        C421   1.282       .  A
O412       Ni419   1.935       .  S
O412        C422   1.282       .  A
O413       Ni419   1.886       .  S
O413        C423   1.285       .  A
O414       Ni419   1.925       .  S
O414        C424   1.278       .  A
O415       Ni420   1.862   1_556  S
O415        C604   1.277       .  A
O416       Ni420   1.873       .  S
O416        C603   1.265       .  A
O417       Ni600   1.942       .  S
O417        C422   1.288       .  A
O418       Ni420   1.916       .  S
O418        C421   1.285       .  A
Ni419       O591   1.925       .  S
Ni419      Ni600   2.386       .  S
Ni420       O597   1.942   1_554  S
Ni420      Ni599   2.386   1_554  S
C423        C515   1.428       .  S
C423        O596   1.265       .  A
C424        C502   1.473       .  S
C424        O595   1.277       .  A
O425        C435   1.286       .  A
O426       Ni433   1.919       .  S
O426        C436   1.284       .  A
O427       Ni433   1.903       .  S
O428       Ni433   1.855       .  S
O429       Ni434   1.899       .  S
O429        C438   1.271       .  A
O430       Ni434   1.901   1_545  S
O430        C437   1.284       .  A
O431        C436   1.287       .  A
O432       Ni434   1.944       .  S
O432        C435   1.288       .  A
C437        C492   1.464       .  S
C438        C482   1.441       .  S
O439      Ni1167   1.920       .  S
O439        C449   1.281       .  A
O440       Ni447   1.928       .  S
O440        C450   1.279       .  A
O441       Ni447   1.929       .  S
O441       C1171   1.280       .  A
O442       Ni447   1.918   1_655  S
O442       C1172   1.290       .  A
O443       Ni448   1.888       .  S
O443        C452   1.267       .  A
O444       Ni448   1.859       .  S
O444        C451   1.275       .  A
O445      Ni1168   1.948   1_455  S
O445        C450   1.292       .  A
O446       Ni448   1.956       .  S
O446        C449   1.288       .  A
Ni447      O1159   1.920   1_455  S
Ni447     Ni1168   2.388   1_455  S
Ni448      O1165   1.948       .  S
Ni448     Ni1167   2.388       .  S
C451        C535   1.464       .  S
C451       O1161   1.280       .  A
C452        C525   1.458       .  S
C452       O1162   1.290       .  A
O453        C463   1.289       .  A
O454       Ni461   1.956       .  S
O454        C464   1.287       .  A
O455       Ni461   1.928       .  S
O456       Ni461   1.919       .  S
O457       Ni462   1.883       .  S
O457        C466   1.274       .  A
O458       Ni462   1.889   1_545  S
O458        C465   1.278       .  A
O459        C464   1.287       .  A
O460       Ni462   1.944       .  S
O460        C463   1.286       .  A
C465        C495   1.468       .  S
C466        C485   1.463       .  S
O467       Ni475   1.900       .  S
O467        C477   1.280   1_554  A
O468       Ni475   1.886       .  S
O468        C658   1.276       .  A
O469       Ni655   1.945       .  S
O469        C479   1.285       .  A
O470       Ni475   1.960       .  S
O470        C480   1.290       .  A
O471       Ni656   1.954   1_554  S
O471        C480   1.289       .  A
O472       Ni476   1.933       .  S
O472        C479   1.286       .  A
O473       Ni476   1.879       .  S
O473        C478   1.275       .  A
O474       Ni476   1.906       .  S
O474        C657   1.280       .  A
Ni475       O649   1.945   1_554  S
Ni475      Ni656   2.388   1_554  S
Ni476       O651   1.954       .  S
Ni476      Ni655   2.388       .  S
C477        C685   1.479       .  S
C477        O654   1.280       .  A
C478        C512   1.444       .  S
C478        O648   1.276       .  A
C481        C482   1.396       .  A
C481        C666   1.397       .  A
C481        H488   1.084       .  S
C483        C664   1.399       .  A
C483        F490   1.356       .  S
C484        C663   1.399       .  A
C484        H489   1.083       .  S
C485        C486   1.410       .  A
C486        C661   1.397       .  A
C486        F487   1.359       .  S
C491        C492   1.411       .  A
C491        C496   1.405       .  A
C491        H498   1.084       .  S
C493        C494   1.395       .  A
C493        F500   1.357       .  S
C494        H499   1.080       .  S
C495        C496   1.402       .  A
C496        F497   1.357       .  S
C501        C682   1.407       .  A
C501       C1226   1.407   1_455  A
C501        H508   1.083       .  S
C502        C681   1.407       .  A
C502        C503   1.408       .  A
C503       C1224   1.410       .  A
C503        F510   1.356       .  S
C504       C1223   1.410       .  A
C504        C505   1.407       .  A
C504        H509   1.079       .  S
C505        C686   1.419       .  A
C505        C657   1.479       .  S
C506       C1221   1.407       .  A
C506        C685   1.419       .  A
C506        F507   1.357       .  S
C511        C692   1.404       .  A
C511        C516   1.389       .  A
C511        H518   1.083       .  S
C512        C691   1.404       .  A
C512        C513   1.405       .  A
C513        C514   1.383       .  A
C513        F520   1.359       .  S
C514        C515   1.391       .  A
C514        H519   1.085       .  S
C515        C696   1.399       .  A
C516        C695   1.399       .  A
C516        F517   1.355       .  S
C521       C1242   1.407       .  A
C521        H528   1.083       .  S
C522       C1241   1.407       .  A
C522        C523   1.412       .  A
C523        F530   1.356       .  S
C524        C525   1.398       .  A
C524        H529   1.084       .  S
C525       C1246   1.400       .  A
C526       C1245   1.400       .  A
C526        F527   1.357       .  S
C531       C1252   1.411       .  A
C531        C536   1.407       .  A
C531        H538   1.083       .  S
C532       C1251   1.411       .  A
C532        C533   1.416       .  A
C533        C534   1.404       .  A
C533        F540   1.357       .  S
C534        C535   1.403       .  A
C534        H539   1.083       .  S
C535       C1256   1.408       .  A
C536       C1255   1.408       .  A
C536        F537   1.356       .  S
C541        C542   1.413       .  A
C541        C546   1.427       .  A
C541        C659   1.493       .  S
C542        C543   1.395       .  A
C542        H547   1.083       .  S
C543        C544   1.404       .  A
C543        C587   1.485       .  S
C544        C545   1.409       .  A
C544        H548   1.082       .  S
C545        C546   1.423       .  A
C545        C644   1.511       .  S
C546        H549   1.083       .  S
C550        C551   1.400       .  A
C550        C555   1.424       .  A
C550        C615   1.509       .  S
C551        C552   1.407       .  A
C551        H556   1.085       .  S
C552        C553   1.421       .  A
C552        C629   1.495       .  S
C553        C554   1.423       .  A
C553        H557   1.083       .  S
C554        C555   1.429       .  A
C554        C660   1.524       .  S
C555        H558   1.083       .  S
C559        C560   1.404       .  A
C559        C564   1.427       .  A
C559        C630   1.506       .  S
C560        C561   1.396       .  A
C560        H565   1.073       .  S
C561        C562   1.414       .  A
C561        C602   1.494       .  S
C562        C563   1.421       .  A
C562        H566   1.083       .  S
C563        C564   1.422       .  A
C563        C643   1.513       .  S
C564        H567   1.083       .  S
C568        C569   1.404       .  A
C568        C573   1.394       .  A
C568        C601   1.489       .  S
C569        C570   1.417       .  A
C569        H574   1.083       .  S
C570        C571   1.422       .  A
C570        C616   1.502       .  S
C571        C572   1.418       .  A
C571        H575   1.083       .  S
C572        C573   1.405       .  A
C572        C588   1.494       .  S
C573        H576   1.083       .  S
O577       Ni585   1.913       .  S
O577        C587   1.280       .  A
O578      Ni1305   1.907   1_455  S
O578        C588   1.283       .  A
O579       Ni585   1.893       .  S
O579        C589   1.276       .  A
O580       Ni585   1.909       .  S
O580        C590   1.280       .  A
O581       Ni586   1.919       .  S
O581       C1310   1.283       .  A
O582       Ni586   1.910   1_655  S
O582       C1309   1.282       .  A
O583       Ni586   1.941       .  S
O583        C588   1.284       .  A
O584      Ni1306   1.939       .  S
O584        C587   1.285       .  A
Ni585      O1298   1.907       .  S
Ni585     Ni1306   2.386       .  S
Ni586      O1304   1.939   1_455  S
Ni586     Ni1305   2.386   1_455  S
C589        C702   1.466       .  S
C589       O1302   1.282       .  A
C590        C712   1.482       .  S
C590       O1301   1.283       .  A
O591        C601   1.282       .  A
O592       Ni599   1.935       .  S
O592        C602   1.282       .  A
O593       Ni599   1.886   1_554  S
O593        C603   1.285       .  A
O594       Ni599   1.925       .  S
O594        C604   1.278       .  A
O595       Ni600   1.862       .  S
O596       Ni600   1.873       .  S
O597        C602   1.288       .  A
O598       Ni600   1.916       .  S
O598        C601   1.285       .  A
C603        C695   1.428       .  S
C604        C682   1.473       .  S
O605        C615   1.286       .  A
O606       Ni613   1.919       .  S
O606        C616   1.284       .  A
O607       Ni613   1.903       .  S
O608       Ni613   1.855       .  S
O609       Ni614   1.899       .  S
O609        C618   1.271       .  A
O610       Ni614   1.901   1_545  S
O610        C617   1.284       .  A
O611        C616   1.287       .  A
O612       Ni614   1.944       .  S
O612        C615   1.288       .  A
C617        C672   1.464       .  S
C618        C662   1.441       .  S
O619      Ni1347   1.920       .  S
O619        C629   1.281       .  A
O620       Ni627   1.928       .  S
O620        C630   1.279       .  A
O621       Ni627   1.929       .  S
O621       C1351   1.280       .  A
O622       Ni627   1.918   1_655  S
O622       C1352   1.290       .  A
O623       Ni628   1.888       .  S
O623        C632   1.267       .  A
O624       Ni628   1.859       .  S
O624        C631   1.275       .  A
O625      Ni1348   1.948   1_455  S
O625        C630   1.292       .  A
O626       Ni628   1.956       .  S
O626        C629   1.288       .  A
Ni627      O1339   1.920   1_455  S
Ni627     Ni1348   2.388   1_455  S
Ni628      O1345   1.948       .  S
Ni628     Ni1347   2.388       .  S
C631        C715   1.464       .  S
C631       O1341   1.280       .  A
C632        C705   1.458       .  S
C632       O1342   1.290       .  A
O633        C643   1.289       .  A
O634       Ni641   1.956       .  S
O634        C644   1.287       .  A
O635       Ni641   1.928       .  S
O636       Ni641   1.919       .  S
O637       Ni642   1.883       .  S
O637        C646   1.274       .  A
O638       Ni642   1.889   1_545  S
O638        C645   1.278       .  A
O639        C644   1.287       .  A
O640       Ni642   1.944       .  S
O640        C643   1.286       .  A
C645        C675   1.468       .  S
C646        C665   1.463   1_556  S
O647       Ni655   1.900       .  S
O647        C657   1.280       .  A
O648       Ni655   1.886       .  S
O649        C659   1.285       .  A
O650       Ni655   1.960       .  S
O650        C660   1.290       .  A
O651        C660   1.289       .  A
O652       Ni656   1.933       .  S
O652        C659   1.286       .  A
O653       Ni656   1.879       .  S
O653        C658   1.275   1_556  A
O654       Ni656   1.906       .  S
C658        C692   1.444       .  S
C661        C662   1.396       .  A
C661        H668   1.084       .  S
C663        F670   1.356       .  S
C664        H669   1.083       .  S
C665        C666   1.410       .  A
C666        F667   1.359   1_554  S
C671        C672   1.411       .  A
C671        C676   1.405       .  A
C671        H678   1.084       .  S
C673        C674   1.395       .  A
C673        F680   1.357       .  S
C674        H679   1.080       .  S
C675        C676   1.402       .  A
C676        F677   1.357       .  S
C681       C1406   1.407   1_455  A
C681        H688   1.083       .  S
C682        C683   1.408       .  A
C683       C1404   1.410       .  A
C683        F690   1.356       .  S
C684       C1403   1.410       .  A
C684        C685   1.407       .  A
C684        H689   1.079       .  S
C686       C1401   1.407       .  A
C686        F687   1.357       .  S
C691        C696   1.389       .  A
C691        H698   1.083       .  S
C692        C693   1.405       .  A
C693        C694   1.383       .  A
C693        F700   1.359   1_554  S
C694        C695   1.391       .  A
C694        H699   1.085   1_554  S
C696        F697   1.355       .  S
C701       C1422   1.407       .  A
C701        H708   1.083       .  S
C702       C1421   1.407       .  A
C702        C703   1.412       .  A
C703        F710   1.356       .  S
C704        C705   1.398       .  A
C704        H709   1.084       .  S
C705       C1426   1.400       .  A
C706       C1425   1.400       .  A
C706        F707   1.357       .  S
C711       C1432   1.411       .  A
C711        C716   1.407       .  A
C711        H718   1.083       .  S
C712       C1431   1.411       .  A
C712        C713   1.416       .  A
C713        C714   1.404       .  A
C713        F720   1.357       .  S
C714        C715   1.403       .  A
C714        H719   1.083       .  S
C715       C1436   1.408       .  A
C716       C1435   1.408       .  A
C716        F717   1.356       .  S
C721        C722   1.413       .  A
C721        C726   1.427       .  A
C721        C839   1.493       .  S
C722        C723   1.395       .  A
C722        H727   1.083       .  S
C723        C724   1.404       .  A
C723        C767   1.485       .  S
C724        C725   1.409       .  A
C724        H728   1.082       .  S
C725        C726   1.423       .  A
C725        C824   1.511       .  S
C726        H729   1.083       .  S
C730        C731   1.400       .  A
C730        C735   1.424       .  A
C730        C795   1.509       .  S
C731        C732   1.407       .  A
C731        H736   1.085       .  S
C732        C733   1.421       .  A
C732        C809   1.495       .  S
C733        C734   1.423       .  A
C733        H737   1.083       .  S
C734        C735   1.429       .  A
C734        C840   1.524       .  S
C735        H738   1.083       .  S
C739        C740   1.404       .  A
C739        C744   1.427       .  A
C739        C810   1.506       .  S
C740        C741   1.396       .  A
C740        H745   1.073       .  S
C741        C742   1.414       .  A
C741        C782   1.494       .  S
C742        C743   1.421       .  A
C742        H746   1.084       .  S
C743        C744   1.422       .  A
C743        C823   1.513       .  S
C744        H747   1.083       .  S
C748        C749   1.404       .  A
C748        C753   1.394       .  A
C748        C781   1.489       .  S
C749        C750   1.417       .  A
C749        H754   1.083       .  S
C750        C751   1.422       .  A
C750        C796   1.502       .  S
C751        C752   1.418       .  A
C751        H755   1.083       .  S
C752        C753   1.405       .  A
C752        C768   1.494       .  S
C753        H756   1.083       .  S
O757       Ni765   1.913       .  S
O757        C767   1.280       .  A
O758        C768   1.283       .  A
O759       Ni765   1.893       .  S
O759        C769   1.276       .  A
O760       Ni765   1.909   1_455  S
O760        C770   1.280       .  A
O761       Ni766   1.919       .  S
O762       Ni766   1.910       .  S
O763       Ni766   1.941       .  S
O763        C768   1.284       .  A
O764        C767   1.285       .  A
C769        C882   1.466       .  S
C770        C892   1.482       .  S
O771       Ni959   1.925   1_554  S
O771        C781   1.282       .  A
O772       Ni779   1.935       .  S
O772        C782   1.282       .  A
O773       Ni779   1.886       .  S
O773        C783   1.285       .  A
O774       Ni779   1.925       .  S
O774        C784   1.278       .  A
O775       Ni780   1.862   1_556  S
O775        C964   1.277       .  A
O776       Ni780   1.873       .  S
O776        C963   1.265       .  A
O777       Ni960   1.942       .  S
O777        C782   1.288       .  A
O778       Ni780   1.916       .  S
O778        C781   1.285       .  A
Ni779       O951   1.925       .  S
Ni779      Ni960   2.386       .  S
Ni780       O957   1.942   1_554  S
Ni780      Ni959   2.386   1_554  S
C783        C875   1.428       .  S
C783        O956   1.265       .  A
C784        C862   1.473       .  S
C784        O955   1.277       .  A
O785      Ni1153   1.949       .  S
O785        C795   1.286       .  A
O786       Ni793   1.919       .  S
O786        C796   1.284       .  A
O787       Ni793   1.903       .  S
O787       C1157   1.274       .  A
O788       Ni793   1.855   1_565  S
O788       C1158   1.279       .  A
O789       Ni794   1.899       .  S
O789        C798   1.271       .  A
O790       Ni794   1.901       .  S
O790        C797   1.284       .  A
O791      Ni1154   1.949   1_545  S
O791        C796   1.287       .  A
O792       Ni794   1.944       .  S
O792        C795   1.288       .  A
Ni793      O1145   1.949   1_545  S
Ni793     Ni1154   2.389   1_545  S
Ni794      O1151   1.949       .  S
Ni794     Ni1153   2.389       .  S
C797        C852   1.464       .  S
C797       O1147   1.274       .  A
C798        C842   1.441       .  S
C798       O1148   1.279       .  A
O799        C809   1.281       .  A
O800       Ni807   1.928       .  S
O800        C810   1.279       .  A
O801       Ni807   1.929       .  S
O802       Ni807   1.918       .  S
O803       Ni808   1.888       .  S
O803        C812   1.267       .  A
O804       Ni808   1.859   1_455  S
O804        C811   1.275       .  A
O805        C810   1.292       .  A
O806       Ni808   1.956       .  S
O806        C809   1.288       .  A
C811        C895   1.464       .  S
C812        C885   1.458       .  S
O813      Ni1181   1.960       .  S
O813        C823   1.289       .  A
O814       Ni821   1.956       .  S
O814        C824   1.287       .  A
O815       Ni821   1.928       .  S
O815       C1185   1.281       .  A
O816       Ni821   1.919       .  S
O816       C1186   1.283   1_545  A
O817       Ni822   1.883       .  S
O817        C826   1.274       .  A
O818       Ni822   1.889       .  S
O818        C825   1.278       .  A
O819      Ni1182   1.936   1_545  S
O819        C824   1.287       .  A
O820       Ni822   1.944       .  S
O820        C823   1.286       .  A
Ni821      O1173   1.960   1_545  S
Ni821     Ni1182   2.384   1_545  S
Ni822      O1179   1.936       .  S
Ni822     Ni1181   2.384       .  S
C825        C855   1.468       .  S
C825       O1175   1.281       .  A
C826        C845   1.463       .  S
C826       O1176   1.283       .  A
O827       Ni835   1.900       .  S
O827        C837   1.280   1_554  A
O828       Ni835   1.886       .  S
O828       C1018   1.276       .  A
O829      Ni1015   1.945       .  S
O829        C839   1.285       .  A
O830       Ni835   1.960       .  S
O830        C840   1.290       .  A
O831      Ni1016   1.954   1_554  S
O831        C840   1.289       .  A
O832       Ni836   1.933       .  S
O832        C839   1.286       .  A
O833       Ni836   1.879       .  S
O833        C838   1.275       .  A
O834       Ni836   1.906       .  S
O834       C1017   1.280       .  A
Ni835      O1009   1.945   1_554  S
Ni835     Ni1016   2.388   1_554  S
Ni836      O1011   1.954       .  S
Ni836     Ni1015   2.388       .  S
C837       C1045   1.479       .  S
C837       O1014   1.280       .  A
C838        C872   1.444       .  S
C838       O1008   1.276       .  A
C841        C842   1.396       .  A
C841       C1026   1.397       .  A
C841        H848   1.084       .  S
C842       C1203   1.402       .  A
C843       C1202   1.402       .  A
C843       C1024   1.399       .  A
C843        F850   1.356       .  S
C844       C1023   1.399       .  A
C844       C1205   1.407       .  A
C844        H849   1.083       .  S
C845       C1204   1.407       .  A
C845        C846   1.410       .  A
C846       C1021   1.397       .  A
C846        F847   1.359       .  S
C851        C852   1.411       .  A
C851        C856   1.405       .  A
C851        H858   1.084       .  S
C852       C1213   1.396       .  A
C853       C1212   1.396       .  A
C853        C854   1.395       .  A
C853        F860   1.357       .  S
C854       C1215   1.410       .  A
C854        H859   1.080       .  S
C855       C1214   1.410       .  A
C855        C856   1.402       .  A
C856        F857   1.357       .  S
C861       C1042   1.407       .  A
C861        H868   1.083       .  S
C862       C1041   1.407       .  A
C862        C863   1.408       .  A
C863        F870   1.356       .  S
C864        C865   1.407   1_455  A
C864        H869   1.079       .  S
C865       C1046   1.419       .  A
C865       C1017   1.479       .  S
C866       C1045   1.419       .  A
C866        F867   1.357       .  S
C871       C1052   1.404       .  A
C871        C876   1.389       .  A
C871        H878   1.083       .  S
C872       C1051   1.404       .  A
C872        C873   1.405       .  A
C873        C874   1.383       .  A
C873        F880   1.359       .  S
C874        C875   1.391       .  A
C874        H879   1.085       .  S
C875       C1056   1.399       .  A
C876       C1055   1.399       .  A
C876        F877   1.355       .  S
C881       C1246   1.395       .  A
C881        H888   1.083       .  S
C882        C883   1.412   1_545  A
C883       C1244   1.393       .  A
C883        F890   1.356   1_565  S
C884       C1243   1.393       .  A
C884        C885   1.398       .  A
C884        H889   1.084       .  S
C886       C1241   1.395       .  A
C886        F887   1.357       .  S
C891        C896   1.407       .  A
C891        H898   1.083       .  S
C892        C893   1.416       .  A
C893        C894   1.404       .  A
C893        F900   1.357       .  S
C894        C895   1.403       .  A
C894        H899   1.083       .  S
C896        F897   1.356       .  S
C901        C902   1.413       .  A
C901        C906   1.427       .  A
C901       C1019   1.493       .  S
C902        C903   1.395       .  A
C902        H907   1.083       .  S
C903        C904   1.404       .  A
C903        C947   1.485       .  S
C904        C905   1.409       .  A
C904        H908   1.082       .  S
C905        C906   1.423       .  A
C905       C1004   1.511       .  S
C906        H909   1.083       .  S
C910        C911   1.400       .  A
C910        C915   1.424       .  A
C910        C975   1.509       .  S
C911        C912   1.407       .  A
C911        H916   1.085       .  S
C912        C913   1.421       .  A
C912        C989   1.495       .  S
C913        C914   1.423       .  A
C913        H917   1.083       .  S
C914        C915   1.429       .  A
C914       C1020   1.524       .  S
C915        H918   1.083       .  S
C919        C920   1.404       .  A
C919        C924   1.427       .  A
C919        C990   1.506       .  S
C920        C921   1.396       .  A
C920        H925   1.073       .  S
C921        C922   1.414       .  A
C921        C962   1.494       .  S
C922        C923   1.421       .  A
C922        H926   1.083       .  S
C923        C924   1.422       .  A
C923       C1003   1.513       .  S
C924        H927   1.083       .  S
C928        C929   1.404       .  A
C928        C933   1.394       .  A
C928        C961   1.489       .  S
C929        C930   1.417       .  A
C929        H934   1.083       .  S
C930        C931   1.422       .  A
C930        C976   1.502       .  S
C931        C932   1.418       .  A
C931        H935   1.083       .  S
C932        C933   1.405       .  A
C932        C948   1.494       .  S
C933        H936   1.083       .  S
O937       Ni945   1.913       .  S
O937        C947   1.280       .  A
O938        C948   1.283       .  A
O939       Ni945   1.893       .  S
O939        C949   1.276       .  A
O940       Ni945   1.909   1_455  S
O940        C950   1.280       .  A
O941       Ni946   1.919       .  S
O942       Ni946   1.910       .  S
O943       Ni946   1.941       .  S
O943        C948   1.284       .  A
O944        C947   1.285       .  A
C949       C1062   1.466       .  S
C950       C1072   1.482       .  S
O951        C961   1.282       .  A
O952       Ni959   1.935       .  S
O952        C962   1.282       .  A
O953       Ni959   1.886   1_554  S
O953        C963   1.285       .  A
O954       Ni959   1.925       .  S
O954        C964   1.278       .  A
O955       Ni960   1.862       .  S
O956       Ni960   1.873       .  S
O957        C962   1.288       .  A
O958       Ni960   1.916       .  S
O958        C961   1.285       .  A
C963       C1055   1.428       .  S
C964       C1042   1.473       .  S
O965      Ni1333   1.949       .  S
O965        C975   1.286       .  A
O966       Ni973   1.919       .  S
O966        C976   1.284       .  A
O967       Ni973   1.903       .  S
O967       C1337   1.274       .  A
O968       Ni973   1.855   1_565  S
O968       C1338   1.279       .  A
O969       Ni974   1.899       .  S
O969        C978   1.271       .  A
O970       Ni974   1.901       .  S
O970        C977   1.284       .  A
O971      Ni1334   1.949   1_545  S
O971        C976   1.287       .  A
O972       Ni974   1.944       .  S
O972        C975   1.288       .  A
Ni973      O1325   1.949   1_545  S
Ni973     Ni1334   2.389   1_545  S
Ni974      O1331   1.949       .  S
Ni974     Ni1333   2.389       .  S
C977       C1032   1.464       .  S
C977       O1327   1.274       .  A
C978       C1022   1.441       .  S
C978       O1328   1.279       .  A
O979        C989   1.281       .  A
O980       Ni987   1.928       .  S
O980        C990   1.279       .  A
O981       Ni987   1.929       .  S
O982       Ni987   1.918       .  S
O983       Ni988   1.888       .  S
O983        C992   1.267       .  A
O984       Ni988   1.859   1_455  S
O984        C991   1.275       .  A
O985        C990   1.292       .  A
O986       Ni988   1.956       .  S
O986        C989   1.288       .  A
C991       C1075   1.464       .  S
C992       C1065   1.458       .  S
O993      Ni1361   1.960       .  S
O993       C1003   1.289       .  A
O994      Ni1001   1.956       .  S
O994       C1004   1.287       .  A
O995      Ni1001   1.928       .  S
O995       C1365   1.281       .  A
O996      Ni1001   1.919       .  S
O996       C1366   1.283   1_545  A
O997      Ni1002   1.883       .  S
O997       C1006   1.274       .  A
O998      Ni1002   1.889       .  S
O998       C1005   1.278       .  A
O999      Ni1362   1.936   1_545  S
O999       C1004   1.287       .  A
O1000     Ni1002   1.944       .  S
O1000      C1003   1.286       .  A
Ni1001     O1353   1.960   1_545  S
Ni1001    Ni1362   2.384   1_545  S
Ni1002     O1359   1.936       .  S
Ni1002    Ni1361   2.384       .  S
C1005      C1035   1.468       .  S
C1005      O1355   1.281       .  A
C1006      C1025   1.463   1_556  S
C1006      O1356   1.283       .  A
O1007     Ni1015   1.900       .  S
O1007      C1017   1.280       .  A
O1008     Ni1015   1.886       .  S
O1009      C1019   1.285       .  A
O1010     Ni1015   1.960       .  S
O1010      C1020   1.290       .  A
O1011      C1020   1.289       .  A
O1012     Ni1016   1.933       .  S
O1012      C1019   1.286       .  A
O1013     Ni1016   1.879       .  S
O1013      C1018   1.275   1_556  A
O1014     Ni1016   1.906       .  S
C1018      C1052   1.444       .  S
C1021      C1022   1.396       .  A
C1021      H1028   1.084       .  S
C1022      C1383   1.402       .  A
C1023      C1382   1.402       .  A
C1023      F1030   1.356       .  S
C1024      C1385   1.407       .  A
C1024      H1029   1.083       .  S
C1025      C1384   1.407       .  A
C1025      C1026   1.410       .  A
C1026      F1027   1.359   1_554  S
C1031      C1032   1.411       .  A
C1031      C1036   1.405       .  A
C1031      H1038   1.084       .  S
C1032      C1393   1.396       .  A
C1033      C1392   1.396       .  A
C1033      C1034   1.395       .  A
C1033      F1040   1.357       .  S
C1034      C1395   1.410       .  A
C1034      H1039   1.080       .  S
C1035      C1394   1.410       .  A
C1035      C1036   1.402       .  A
C1036      F1037   1.357       .  S
C1041      H1048   1.083       .  S
C1042      C1043   1.408       .  A
C1043      F1050   1.356       .  S
C1044      C1045   1.407   1_455  A
C1044      H1049   1.079       .  S
C1046      F1047   1.357       .  S
C1051      C1056   1.389       .  A
C1051      H1058   1.083       .  S
C1052      C1053   1.405       .  A
C1053      C1054   1.383       .  A
C1053      F1060   1.359   1_554  S
C1054      C1055   1.391       .  A
C1054      H1059   1.085   1_554  S
C1056      F1057   1.355       .  S
C1061      C1426   1.395       .  A
C1061      H1068   1.083       .  S
C1062      C1063   1.412   1_545  A
C1063      C1424   1.393       .  A
C1063      F1070   1.356   1_565  S
C1064      C1423   1.393       .  A
C1064      C1065   1.398       .  A
C1064      H1069   1.084       .  S
C1066      C1421   1.395       .  A
C1066      F1067   1.357       .  S
C1071      C1076   1.407       .  A
C1071      H1078   1.083       .  S
C1072      C1073   1.416       .  A
C1073      C1074   1.404       .  A
C1073      F1080   1.357       .  S
C1074      C1075   1.403       .  A
C1074      H1079   1.083       .  S
C1076      F1077   1.356       .  S
C1081      C1082   1.413       .  A
C1081      C1086   1.427       .  A
C1081      C1199   1.493       .  S
C1082      C1083   1.395       .  A
C1082      H1087   1.083       .  S
C1083      C1084   1.404       .  A
C1083      C1127   1.485       .  S
C1084      C1085   1.409       .  A
C1084      H1088   1.082       .  S
C1085      C1086   1.423       .  A
C1085      C1184   1.511       .  S
C1086      H1089   1.083       .  S
C1090      C1091   1.400       .  A
C1090      C1095   1.424       .  A
C1090      C1155   1.509       .  S
C1091      C1092   1.407       .  A
C1091      H1096   1.085       .  S
C1092      C1093   1.421       .  A
C1092      C1169   1.495       .  S
C1093      C1094   1.423       .  A
C1093      H1097   1.083       .  S
C1094      C1095   1.429       .  A
C1094      C1200   1.524       .  S
C1095      H1098   1.083       .  S
C1099      C1100   1.404       .  A
C1099      C1104   1.427       .  A
C1099      C1170   1.506       .  S
C1100      C1101   1.396       .  A
C1100      H1105   1.073       .  S
C1101      C1102   1.414       .  A
C1101      C1142   1.494       .  S
C1102      C1103   1.421       .  A
C1102      H1106   1.083       .  S
C1103      C1104   1.422       .  A
C1103      C1183   1.513       .  S
C1104      H1107   1.083       .  S
C1108      C1109   1.404       .  A
C1108      C1113   1.394       .  A
C1108      C1141   1.489       .  S
C1109      C1110   1.417       .  A
C1109      H1114   1.083       .  S
C1110      C1111   1.422       .  A
C1110      C1156   1.502       .  S
C1111      C1112   1.418       .  A
C1111      H1115   1.083       .  S
C1112      C1113   1.405       .  A
C1112      C1128   1.494       .  S
C1113      H1116   1.083       .  S
O1117     Ni1125   1.913       .  S
O1117      C1127   1.280       .  A
O1118      C1128   1.283       .  A
O1119     Ni1125   1.893       .  S
O1119      C1129   1.276       .  A
O1120     Ni1125   1.909   1_455  S
O1120      C1130   1.280       .  A
O1121     Ni1126   1.919       .  S
O1122     Ni1126   1.910       .  S
O1123     Ni1126   1.941       .  S
O1123      C1128   1.284       .  A
O1124      C1127   1.285       .  A
C1129      C1242   1.466       .  S
C1130      C1252   1.482       .  S
O1131     Ni1319   1.925   1_554  S
O1131      C1141   1.282       .  A
O1132     Ni1139   1.935       .  S
O1132      C1142   1.282       .  A
O1133     Ni1139   1.886       .  S
O1133      C1143   1.285       .  A
O1134     Ni1139   1.925       .  S
O1134      C1144   1.278       .  A
O1135     Ni1140   1.862   1_556  S
O1135      C1324   1.277       .  A
O1136     Ni1140   1.873       .  S
O1136      C1323   1.265       .  A
O1137     Ni1320   1.942       .  S
O1137      C1142   1.288       .  A
O1138     Ni1140   1.916       .  S
O1138      C1141   1.285       .  A
Ni1139     O1311   1.925       .  S
Ni1139    Ni1320   2.386       .  S
Ni1140     O1317   1.942   1_554  S
Ni1140    Ni1319   2.386   1_554  S
C1143      C1235   1.428       .  S
C1143      O1316   1.265       .  A
C1144      C1222   1.473       .  S
C1144      O1315   1.277       .  A
O1145      C1155   1.286       .  A
O1146     Ni1153   1.919       .  S
O1146      C1156   1.284       .  A
O1147     Ni1153   1.903       .  S
O1148     Ni1153   1.855       .  S
O1149     Ni1154   1.899       .  S
O1149      C1158   1.271       .  A
O1150     Ni1154   1.901   1_545  S
O1150      C1157   1.284       .  A
O1151      C1156   1.287       .  A
O1152     Ni1154   1.944       .  S
O1152      C1155   1.288       .  A
C1157      C1212   1.464       .  S
C1158      C1202   1.441       .  S
O1159      C1169   1.281       .  A
O1160     Ni1167   1.928       .  S
O1160      C1170   1.279       .  A
O1161     Ni1167   1.929       .  S
O1162     Ni1167   1.918       .  S
O1163     Ni1168   1.888       .  S
O1163      C1172   1.267       .  A
O1164     Ni1168   1.859   1_455  S
O1164      C1171   1.275       .  A
O1165      C1170   1.292       .  A
O1166     Ni1168   1.956       .  S
O1166      C1169   1.288       .  A
C1171      C1255   1.464       .  S
C1172      C1245   1.458       .  S
O1173      C1183   1.289       .  A
O1174     Ni1181   1.956       .  S
O1174      C1184   1.287       .  A
O1175     Ni1181   1.928       .  S
O1176     Ni1181   1.919       .  S
O1177     Ni1182   1.883       .  S
O1177      C1186   1.274       .  A
O1178     Ni1182   1.889   1_545  S
O1178      C1185   1.278       .  A
O1179      C1184   1.287       .  A
O1180     Ni1182   1.944       .  S
O1180      C1183   1.286       .  A
C1185      C1215   1.468       .  S
C1186      C1205   1.463       .  S
O1187     Ni1195   1.900       .  S
O1187      C1197   1.280   1_554  A
O1188     Ni1195   1.886       .  S
O1188      C1378   1.276       .  A
O1189     Ni1375   1.945       .  S
O1189      C1199   1.285       .  A
O1190     Ni1195   1.960       .  S
O1190      C1200   1.290       .  A
O1191     Ni1376   1.954   1_554  S
O1191      C1200   1.289       .  A
O1192     Ni1196   1.933       .  S
O1192      C1199   1.286       .  A
O1193     Ni1196   1.879       .  S
O1193      C1198   1.275       .  A
O1194     Ni1196   1.906       .  S
O1194      C1377   1.280       .  A
Ni1195     O1369   1.945   1_554  S
Ni1195    Ni1376   2.388   1_554  S
Ni1196     O1371   1.954       .  S
Ni1196    Ni1375   2.388       .  S
C1197      C1405   1.479       .  S
C1197      O1374   1.280       .  A
C1198      C1232   1.444       .  S
C1198      O1368   1.276       .  A
C1201      C1202   1.396       .  A
C1201      C1386   1.397       .  A
C1201      H1208   1.084       .  S
C1203      C1384   1.399       .  A
C1203      F1210   1.356       .  S
C1204      C1383   1.399       .  A
C1204      H1209   1.083       .  S
C1205      C1206   1.410       .  A
C1206      C1381   1.397       .  A
C1206      F1207   1.359       .  S
C1211      C1212   1.411       .  A
C1211      C1216   1.405       .  A
C1211      H1218   1.084       .  S
C1213      C1214   1.395       .  A
C1213      F1220   1.357       .  S
C1214      H1219   1.080       .  S
C1215      C1216   1.402       .  A
C1216      F1217   1.357       .  S
C1221      C1402   1.407       .  A
C1221      H1228   1.083       .  S
C1222      C1401   1.407       .  A
C1222      C1223   1.408       .  A
C1223      F1230   1.356       .  S
C1224      C1225   1.407   1_455  A
C1224      H1229   1.079       .  S
C1225      C1406   1.419       .  A
C1225      C1377   1.479       .  S
C1226      C1405   1.419       .  A
C1226      F1227   1.357       .  S
C1231      C1412   1.404       .  A
C1231      C1236   1.389       .  A
C1231      H1238   1.083       .  S
C1232      C1411   1.404       .  A
C1232      C1233   1.405       .  A
C1233      C1234   1.383       .  A
C1233      F1240   1.359       .  S
C1234      C1235   1.391       .  A
C1234      H1239   1.085       .  S
C1235      C1416   1.399       .  A
C1236      C1415   1.399       .  A
C1236      F1237   1.355       .  S
C1241      H1248   1.083       .  S
C1242      C1243   1.412       .  A
C1243      F1250   1.356       .  S
C1244      C1245   1.398       .  A
C1244      H1249   1.084       .  S
C1246      F1247   1.357       .  S
C1251      C1256   1.407       .  A
C1251      H1258   1.083       .  S
C1252      C1253   1.416       .  A
C1253      C1254   1.404       .  A
C1253      F1260   1.357       .  S
C1254      C1255   1.403       .  A
C1254      H1259   1.083       .  S
C1256      F1257   1.356       .  S
C1261      C1262   1.413       .  A
C1261      C1266   1.427       .  A
C1261      C1379   1.493       .  S
C1262      C1263   1.395       .  A
C1262      H1267   1.083       .  S
C1263      C1264   1.404       .  A
C1263      C1307   1.485       .  S
C1264      C1265   1.409       .  A
C1264      H1268   1.082       .  S
C1265      C1266   1.423       .  A
C1265      C1364   1.511       .  S
C1266      H1269   1.083       .  S
C1270      C1271   1.400       .  A
C1270      C1275   1.424       .  A
C1270      C1335   1.509       .  S
C1271      C1272   1.407       .  A
C1271      H1276   1.085       .  S
C1272      C1273   1.421       .  A
C1272      C1349   1.495       .  S
C1273      C1274   1.423       .  A
C1273      H1277   1.083       .  S
C1274      C1275   1.429       .  A
C1274      C1380   1.524       .  S
C1275      H1278   1.083       .  S
C1279      C1280   1.404       .  A
C1279      C1284   1.427       .  A
C1279      C1350   1.506       .  S
C1280      C1281   1.396       .  A
C1280      H1285   1.073       .  S
C1281      C1282   1.414       .  A
C1281      C1322   1.494       .  S
C1282      C1283   1.421       .  A
C1282      H1286   1.083       .  S
C1283      C1284   1.422       .  A
C1283      C1363   1.513       .  S
C1284      H1287   1.083       .  S
C1288      C1289   1.404       .  A
C1288      C1293   1.394       .  A
C1288      C1321   1.489       .  S
C1289      C1290   1.417       .  A
C1289      H1294   1.083       .  S
C1290      C1291   1.422       .  A
C1290      C1336   1.502       .  S
C1291      C1292   1.418       .  A
C1291      H1295   1.083       .  S
C1292      C1293   1.405       .  A
C1292      C1308   1.494       .  S
C1293      H1296   1.083       .  S
O1297     Ni1305   1.913       .  S
O1297      C1307   1.280       .  A
O1298      C1308   1.283       .  A
O1299     Ni1305   1.893       .  S
O1299      C1309   1.276       .  A
O1300     Ni1305   1.909   1_455  S
O1300      C1310   1.280       .  A
O1301     Ni1306   1.919       .  S
O1302     Ni1306   1.910       .  S
O1303     Ni1306   1.941       .  S
O1303      C1308   1.284       .  A
O1304      C1307   1.285       .  A
C1309      C1422   1.466       .  S
C1310      C1432   1.482       .  S
O1311      C1321   1.282       .  A
O1312     Ni1319   1.935       .  S
O1312      C1322   1.282       .  A
O1313     Ni1319   1.886   1_554  S
O1313      C1323   1.285       .  A
O1314     Ni1319   1.925       .  S
O1314      C1324   1.278       .  A
O1315     Ni1320   1.862       .  S
O1316     Ni1320   1.873       .  S
O1317      C1322   1.288       .  A
O1318     Ni1320   1.916       .  S
O1318      C1321   1.285       .  A
C1323      C1415   1.428       .  S
C1324      C1402   1.473       .  S
O1325      C1335   1.286       .  A
O1326     Ni1333   1.919       .  S
O1326      C1336   1.284       .  A
O1327     Ni1333   1.903       .  S
O1328     Ni1333   1.855       .  S
O1329     Ni1334   1.899       .  S
O1329      C1338   1.271       .  A
O1330     Ni1334   1.901   1_545  S
O1330      C1337   1.284       .  A
O1331      C1336   1.287       .  A
O1332     Ni1334   1.944       .  S
O1332      C1335   1.288       .  A
C1337      C1392   1.464       .  S
C1338      C1382   1.441       .  S
O1339      C1349   1.281       .  A
O1340     Ni1347   1.928       .  S
O1340      C1350   1.279       .  A
O1341     Ni1347   1.929       .  S
O1342     Ni1347   1.918       .  S
O1343     Ni1348   1.888       .  S
O1343      C1352   1.267       .  A
O1344     Ni1348   1.859   1_455  S
O1344      C1351   1.275       .  A
O1345      C1350   1.292       .  A
O1346     Ni1348   1.956       .  S
O1346      C1349   1.288       .  A
C1351      C1435   1.464       .  S
C1352      C1425   1.458       .  S
O1353      C1363   1.289       .  A
O1354     Ni1361   1.956       .  S
O1354      C1364   1.287       .  A
O1355     Ni1361   1.928       .  S
O1356     Ni1361   1.919       .  S
O1357     Ni1362   1.883       .  S
O1357      C1366   1.274       .  A
O1358     Ni1362   1.889   1_545  S
O1358      C1365   1.278       .  A
O1359      C1364   1.287       .  A
O1360     Ni1362   1.944       .  S
O1360      C1363   1.286       .  A
C1365      C1395   1.468       .  S
C1366      C1385   1.463   1_556  S
O1367     Ni1375   1.900       .  S
O1367      C1377   1.280       .  A
O1368     Ni1375   1.886       .  S
O1369      C1379   1.285       .  A
O1370     Ni1375   1.960       .  S
O1370      C1380   1.290       .  A
O1371      C1380   1.289       .  A
O1372     Ni1376   1.933       .  S
O1372      C1379   1.286       .  A
O1373     Ni1376   1.879       .  S
O1373      C1378   1.275   1_556  A
O1374     Ni1376   1.906       .  S
C1378      C1412   1.444       .  S
C1381      C1382   1.396       .  A
C1381      H1388   1.084       .  S
C1383      F1390   1.356       .  S
C1384      H1389   1.083       .  S
C1385      C1386   1.410       .  A
C1386      F1387   1.359   1_554  S
C1391      C1392   1.411       .  A
C1391      C1396   1.405       .  A
C1391      H1398   1.084       .  S
C1393      C1394   1.395       .  A
C1393      F1400   1.357       .  S
C1394      H1399   1.080       .  S
C1395      C1396   1.402       .  A
C1396      F1397   1.357       .  S
C1401      H1408   1.083       .  S
C1402      C1403   1.408       .  A
C1403      F1410   1.356       .  S
C1404      C1405   1.407   1_455  A
C1404      H1409   1.079       .  S
C1406      F1407   1.357       .  S
C1411      C1416   1.389       .  A
C1411      H1418   1.083       .  S
C1412      C1413   1.405       .  A
C1413      C1414   1.383       .  A
C1413      F1420   1.359   1_554  S
C1414      C1415   1.391       .  A
C1414      H1419   1.085   1_554  S
C1416      F1417   1.355       .  S
C1421      H1428   1.083       .  S
C1422      C1423   1.412       .  A
C1423      F1430   1.356       .  S
C1424      C1425   1.398       .  A
C1424      H1429   1.084       .  S
C1426      F1427   1.357       .  S
C1431      C1436   1.407       .  A
C1431      H1438   1.083       .  S
C1432      C1433   1.416       .  A
C1433      C1434   1.404       .  A
C1433      F1440   1.357       .  S
C1434      C1435   1.403       .  A
C1434      H1439   1.083       .  S
C1436      F1437   1.356       .  S
