geometry optimzed in LAMMPS
_audit_creation_date              2020-11-30 
_audit_creation_method            'lammps2cif' 
_symmetry_space_group_name_H-M    'P1' 
_symmetry_Int_Tables_number       1 
_symmetry_cell_setting            triclinic 
loop_ 
_symmetry_equiv_pos_as_xyz 
  x,y,z 
_cell_length_a                    45.26861083 
_cell_length_b                    28.891719770451537 
_cell_length_c                    56.946249262644024 
_cell_angle_alpha                 89.53498618071824 
_cell_angle_beta                  90.06943205392048 
_cell_angle_gamma                 88.74979788224992 
loop_ 
_atom_site_label 
_atom_site_type_symbol 
_atom_site_fract_x 
_atom_site_fract_y 
_atom_site_fract_z 
_atom_site_charge 
O1          O  0.09471297  0.05995990  0.20732645    -0.73500
O2          O  0.13539709  0.15526832  0.23979293    -0.73500
O3          O  0.08834818  0.15267639  0.20968855    -0.73500
O4          O  0.14204280  0.06185713  0.23678095    -0.73600
O5          O  0.17262570  0.07095063  0.20644573    -0.73500
O6          O  0.11893241  0.15957660  0.17926890    -0.73500
O7          O  0.16545997  0.16417622  0.20918750    -0.73500
O8          O  0.12530599  0.06746765  0.17697126    -0.73500
Ni9        Ni  0.11408754  0.10711081  0.22454190     1.25400
Ni10       Ni  0.14668808  0.11573756  0.19193781     1.25400
C11         C  0.10244086  0.04956364  0.18638168     0.88700
C12         C  0.15722095  0.17532288  0.22998910     0.88700
C13         C  0.09439982  0.16942563  0.18935919     0.88700
C14         C  0.16652397  0.05265507  0.22629435     0.88900
N15         N  0.95547512  0.96648738  0.13082655    -0.35600
N16         N  0.90854514  0.46812505  0.09511430    -0.56200
N17         N  0.95007810  0.46405422  0.05778221    -0.35600
N18         N  0.99627977  0.46239048  0.09173586    -0.56200
C19         C  0.93274302  0.98804694  0.14198307     0.27900
C20         C  0.98086446  0.98206199  0.14016838     0.27900
C21         C  0.92502397  0.47807347  0.04684322     0.27900
C22         C  0.97292443  0.48029608  0.04519800     0.27900
C23         C  0.89398769  0.96083826  0.11559440     0.36600
C24         C  0.89072029  0.45448090  0.07753139     0.36600
C25         C  0.01373663  0.94958477  0.11022806     0.36600
C26         C  0.01119084  0.45110424  0.07210185     0.36600
C27         C  0.94381559  0.01734780  0.15889216    -0.20900
C28         C  0.97425535  0.01344418  0.15779351    -0.20900
C29         C  0.93179672  0.50393232  0.02704058    -0.20900
C30         C  0.96222289  0.50586333  0.02615526    -0.20900
C31         C  0.86682695  0.94164626  0.11094275    -0.22000
C32         C  0.86492658  0.43687195  0.08677175    -0.22000
C33         C  0.03942634  0.92804369  0.10223892    -0.28400
C34         C  0.03769847  0.42878063  0.07782237    -0.22000
C35         C  0.90249536  0.98101416  0.13701981    -0.17300
C36         C  0.00955064  0.96835985  0.13267223    -0.17300
C37         C  0.00278311  0.46824888  0.04978711    -0.17300
C38         C  0.89669053  0.46377736  0.05356009    -0.17300
H39         H  0.93138210  0.03983902  0.17052958     0.15600
H40         H  0.98967166  0.03240576  0.16836772     0.15600
H41         H  0.91621034  0.52098739  0.34763977     0.15600
H42         H  0.97475057  0.52530126  0.34602280     0.15600
H43         H  0.84965094  0.93396149  0.12349792     0.13900
H44         H  0.84619802  0.42386603  0.07725445     0.13900
H45         H  0.05819234  0.91630942  0.11265644     0.13900
H46         H  0.05476324  0.41670162  0.06592231     0.13900
H47         H  0.95375790  0.94050225  0.11829646     0.27100
H48         H  0.95139573  0.43951032  0.07130768     0.27100
N49         N  0.90768282  0.27937759  0.09153341    -0.35600
N50         N  0.94990365  0.27917006  0.13031889    -0.56200
N51         N  0.99456625  0.27173588  0.09371951    -0.35600
N52         N  0.95179861  0.27372756  0.05671445    -0.56200
C53         C  0.89192735  0.29496739  0.11000634     0.27900
C54         C  0.89243418  0.29107682  0.07190922     0.27900
C55         C  0.00921455  0.28308139  0.11340854     0.27900
C56         C  0.01078146  0.28587226  0.07518769     0.27900
C57         C  0.92496147  0.26516513  0.14090009     0.36600
C58         C  0.97267148  0.25870851  0.14205311     0.36600
C59         C  0.92853614  0.25979308  0.04405864     0.36600
C60         C  0.97626871  0.26011937  0.04509847     0.36600
C61         C  0.86678655  0.31853872  0.10211062    -0.20900
C62         C  0.86728768  0.31662436  0.07791418    -0.20900
C63         C  0.03487979  0.30562969  0.10751609    -0.20900
C64         C  0.03563447  0.30815678  0.08328905    -0.20900
C65         C  0.93182492  0.23620542  0.15975197    -0.22000
C66         C  0.96219371  0.23188984  0.16040880    -0.22000
C67         C  0.93825922  0.23612377  0.02432695    -0.22000
C68         C  0.96871257  0.23686330  0.02484361    -0.22000
C69         C  0.89635190  0.27781918  0.13295367    -0.17300
C70         C  0.89919059  0.27325002  0.04945239    -0.17300
C71         C  0.00469909  0.27416463  0.05157320    -0.17300
C72         C  0.00249008  0.26451273  0.13567822    -0.17300
H73         H  0.84906367  0.33284869  0.11273718     0.15600
H74         H  0.85024838  0.33008865  0.06622094     0.15600
H75         H  0.05181478  0.31714668  0.11941831     0.15600
H76         H  0.05318208  0.32277509  0.07291850     0.15600
H77         H  0.91662806  0.21876528  0.17130229     0.13900
H78         H  0.97488669  0.21047232  0.17257638     0.13900
H79         H  0.92461987  0.21804205  0.34372221     0.13900
H80         H  0.98332718  0.21911906  0.34440273     0.13900
H81         H  0.92476314  0.25464850  0.09256694     0.27100
H82         H  0.97695928  0.24907727  0.09313552     0.27100
O83         O  0.13682117  0.33578957  0.27022395    -0.73500
O84         O  0.09319790  0.43438910  0.29764473    -0.73500
O85         O  0.14192858  0.42907439  0.27040048    -0.73500
O86         O  0.08888402  0.34260324  0.29828400    -0.73600
O87         O  0.11897339  0.33468464  0.32912487    -0.73500
O88         O  0.16889579  0.42678590  0.30323015    -0.73500
O89         O  0.11966112  0.42702412  0.33055394    -0.73500
O90         O  0.16758890  0.33210151  0.30084333    -0.73500
Ni91       Ni  0.11443533  0.38564226  0.28291661     1.25400
Ni92       Ni  0.14510911  0.38004844  0.31699757     1.25400
C93         C  0.15887520  0.31704689  0.28088276     0.88700
C94         C  0.09708492  0.44338026  0.31930087     0.88700
C95         C  0.16362316  0.44322560  0.28269524     0.88700
C96         C  0.09452366  0.32627442  0.31887917     0.88900
C97         C  0.67710645  0.21571878  0.26921557     0.87500
C98         C  0.69525994  0.19099251  0.25049077    -0.52800
C99         C  0.71399635  0.21821352  0.23837652     0.10400
C100        C  0.71095575  0.27004858  0.24464983     0.21300
C101        C  0.69947011  0.24248709  0.28409859    -0.53500
C102        C  0.71681555  0.27145660  0.27120036     0.10500
C103        C  0.65995737  0.25345503  0.25585510    -0.53000
C104        C  0.67743534  0.28240038  0.24303258     0.11100
H105        H  0.69407308  0.15424722  0.24737868     0.15600
H106        H  0.72520346  0.29312962  0.23411858     0.01300
H107        H  0.70072148  0.24088365  0.96931692     0.15900
H108        H  0.63611361  0.25790298  0.25708706     0.15700
C109        C  0.72844297  0.04053551  0.24603864     0.87500
C110        C  0.74575539  0.00188586  0.25838116    -0.52800
C111        C  0.72855001  0.47301826  0.27128556     0.10400
C112        C  0.69504598  0.48575591  0.27065766     0.21300
C113        C  0.70505263  0.01521475  0.23157467    -0.53500
C114        C  0.68803247  0.48583316  0.24422525     0.10500
C115        C  0.71149216  0.06473984  0.26575974    -0.53000
C116        C  0.69296288  0.03725841  0.27814383     0.11100
H117        H  0.76951918  0.99714946  0.25651526     0.15600
H118        H  0.68116563  0.46220878  0.28123579     0.01300
H119        H  0.70330823  0.01796388  0.21258939     0.15900
H120        H  0.71288890  0.10138837  0.26904973     0.15700
O121        O  0.62001287  0.08018738  0.33638930    -0.73500
O122        O  0.66461505  0.17216237  0.30406858    -0.73500
O123        O  0.61490914  0.17163953  0.33039328    -0.73500
O124        O  0.67111590  0.07952879  0.30969687    -0.73600
O125        O  0.64401329  0.06853907  0.27754920    -0.73500
O126        O  0.58727008  0.16026111  0.29861229    -0.73500
O127        O  0.63757092  0.16136092  0.27190046    -0.73500
O128        O  0.59323979  0.06860896  0.30410763    -0.73500
Ni129      Ni  0.64371845  0.12593162  0.32123358     1.25400
Ni130      Ni  0.61469877  0.11414531  0.28682589     1.25400
C131        C  0.59752255  0.06305804  0.32617556     0.88700
C132        C  0.65839870  0.18198384  0.28262755     0.88700
C133        C  0.59117164  0.17936540  0.31860971     0.88700
C134        C  0.66753599  0.06064908  0.28964352     0.88900
O135        O  0.67451520  0.34143802  0.21295233    -0.73500
O136        O  0.62959027  0.43941604  0.18254699    -0.73500
O137        O  0.67618278  0.43619556  0.21273712    -0.73500
O138        O  0.62808370  0.34732492  0.18244485    -0.73600
O139        O  0.59584102  0.35131717  0.21192828    -0.73500
O140        O  0.64585461  0.43714618  0.24357283    -0.73500
O141        O  0.59910288  0.44350699  0.21321311    -0.73500
O142        O  0.64179425  0.34321590  0.24219520    -0.73500
Ni143      Ni  0.65345578  0.39112479  0.19673314     1.25400
Ni144      Ni  0.61978104  0.39396866  0.22894452     1.25400
C145        C  0.66438225  0.32473209  0.23217306     0.88700
C146        C  0.60559364  0.45444782  0.19207005     0.88700
C147        C  0.66891314  0.45160387  0.23299191     0.88700
C148        C  0.60309529  0.33705815  0.19140343     0.88900
O149        O  0.25777960  0.31176920  0.24561473    -0.73500
O150        O  0.31079503  0.40052062  0.21940348    -0.73500
O151        O  0.26248129  0.40530648  0.24749613    -0.73500
O152        O  0.30649559  0.30916443  0.21695275    -0.73600
O153        O  0.27817663  0.31961631  0.18521957    -0.73500
O154        O  0.23171786  0.41155091  0.21691701    -0.73500
O155        O  0.28061562  0.41154693  0.18875505    -0.73500
O156        O  0.22967793  0.31754620  0.21349873    -0.73500
Ni157      Ni  0.28515761  0.35627801  0.23362922     1.25400
Ni158      Ni  0.25376668  0.36523251  0.20008794     1.25400
C159        C  0.23526449  0.29945357  0.23372916     0.88700
C160        C  0.30521346  0.41868354  0.19924303     0.88700
C161        C  0.24042063  0.42495780  0.23705223     0.88700
C162        C  0.30155743  0.30294784  0.19507624     0.88900
C163        C  0.22342176  0.03288073  0.27279959     0.87500
C164        C  0.20773595  0.05678449  0.25233582    -0.52800
C165        C  0.19038373  0.02918895  0.23946629     0.10400
C166        C  0.19265680  0.47768524  0.24690637     0.21300
C167        C  0.19930870  0.00715360  0.28654527    -0.53500
C168        C  0.18363811  0.47772672  0.27283980     0.10500
C169        C  0.24191041  0.99443094  0.26166711    -0.53000
C170        C  0.22613448  0.46518208  0.24814773     0.11100
H171        H  0.20920914  0.09343602  0.24873799     0.15600
H172        H  0.17969197  0.45416396  0.23574260     0.01300
H173        H  0.19696125  0.00930962  0.97223617     0.15900
H174        H  0.26560688  0.99038032  0.26431752     0.15700
O175        O  0.31029989  0.08853655  0.30393694    -0.73500
O176        O  0.25637108  0.18079024  0.27985167    -0.73500
O177        O  0.30487150  0.18019090  0.30834599    -0.73500
O178        O  0.26197126  0.08783203  0.27591300    -0.73600
O179        O  0.23326100  0.07752497  0.30727837    -0.73500
O180        O  0.27575237  0.17026467  0.33954979    -0.73500
O181        O  0.22679602  0.17046627  0.31071270    -0.73500
O182        O  0.28145384  0.07842438  0.33522593    -0.73500
Ni183      Ni  0.28425606  0.13485270  0.29084559     1.25400
Ni184      Ni  0.25315639  0.12416154  0.32429061     1.25400
C185        C  0.30547122  0.06989147  0.32399133     0.88700
C186        C  0.23215545  0.18919545  0.29070660     0.88700
C187        C  0.29893868  0.18668527  0.33003460     0.88700
C188        C  0.24079181  0.06721863  0.28630376     0.88900
C189        C  0.17473026  0.20959273  0.24407166     0.87500
C190        C  0.15655106  0.24778387  0.25591796    -0.52800
C191        C  0.17293542  0.27641510  0.26969302     0.10400
C192        C  0.20639798  0.26408690  0.27007597     0.21300
C193        C  0.19861375  0.23589067  0.23032437    -0.53500
C194        C  0.21484126  0.26507859  0.24383340     0.10500
C195        C  0.19078537  0.18520915  0.26434347    -0.53000
C196        C  0.20814325  0.21258780  0.27749986     0.11100
H197        H  0.13282902  0.25202217  0.25350784     0.15600
H198        H  0.21965514  0.28726917  0.28120185     0.01300
H199        H  0.20139336  0.23354178  0.21143235     0.15900
H200        H  0.18932992  0.14849691  0.26771469     0.15700
N201        N  0.44909101  0.00692312  0.06061812    -0.35600
N202        N  0.49362054  0.51357344  0.09531912    -0.56200
N203        N  0.44960074  0.50879150  0.13296385    -0.35600
N204        N  0.40419334  0.49919729  0.09690392    -0.56200
C205        C  0.47338610  0.00062327  0.04702491     0.27900
C206        C  0.42543944  0.99504213  0.04774670     0.27900
C207        C  0.47512949  0.49948841  0.14480786     0.27900
C208        C  0.42707282  0.49189434  0.14591628     0.27900
C209        C  0.51001257  0.02479311  0.07660959     0.36600
C210        C  0.50927297  0.52698558  0.11414212     0.36600
C211        C  0.38675169  0.00901543  0.07797116     0.36600
C212        C  0.38706038  0.50424717  0.11626186     0.36600
C213        C  0.46501543  0.98428617  0.02524734    -0.20900
C214        C  0.43475892  0.98025895  0.02579402    -0.20900
C215        C  0.46874930  0.47749057  0.16581738    -0.20900
C216        C  0.43850036  0.47359573  0.16676740    -0.20900
C217        C  0.53639873  0.04412976  0.08367564    -0.22000
C218        C  0.53550729  0.54648672  0.10704854    -0.22000
C219        C  0.35841942  0.02058538  0.08539229    -0.22000
C220        C  0.35838229  0.51595526  0.10953366    -0.22000
C221        C  0.50208880  0.01469771  0.05313975    -0.17300
C222        C  0.39571468  0.00422874  0.05415506    -0.17300
C223        C  0.39654762  0.49380726  0.13954980    -0.17300
C224        C  0.50384667  0.51126536  0.13715213    -0.17300
H225        H  0.47786693  0.97526662  0.34342537     0.15600
H226        H  0.41990159  0.96765609  0.34467970     0.15600
H227        H  0.48417020  0.46564754  0.17921016     0.15600
H228        H  0.42652816  0.45874996  0.18130116     0.15600
H229        H  0.55506523  0.05386966  0.07306656     0.13900
H230        H  0.55325094  0.55827374  0.11811193     0.13900
H231        H  0.33943653  0.03027012  0.07476933     0.13900
H232        H  0.33914161  0.52097031  0.12045371     0.13900
H233        H  0.44796213  0.02551441  0.07603005     0.27100
H234        H  0.44751090  0.52832289  0.11759223     0.27100
N235        N  0.45055713  0.23823096  0.05955254    -0.35600
N236        N  0.49779533  0.25002269  0.09269568    -0.56200
N237        N  0.45587937  0.25246954  0.13161720    -0.35600
N238        N  0.40917935  0.24172897  0.09713076    -0.56200
C239        C  0.47334091  0.24778976  0.04518746     0.27900
C240        C  0.42529740  0.24600248  0.04731844     0.27900
C241        C  0.47961803  0.27343286  0.14078918     0.27900
C242        C  0.43172813  0.26805049  0.14331632     0.27900
C243        C  0.51283225  0.23236653  0.07417394     0.36600
C244        C  0.51525610  0.24372580  0.11177962     0.36600
C245        C  0.39105256  0.22826334  0.07977413     0.36600
C246        C  0.39499811  0.23320646  0.11745931     0.36600
C247        C  0.46249728  0.26277475  0.02357963    -0.20900
C248        C  0.43213982  0.26078834  0.02477547    -0.20900
C249        C  0.47038612  0.30290251  0.15862317    -0.20900
C250        C  0.44005962  0.29917408  0.16033877    -0.20900
C251        C  0.53969852  0.21350926  0.08168570    -0.22000
C252        C  0.54134086  0.22112306  0.10550302    -0.22000
C253        C  0.36510921  0.21137004  0.08927076    -0.22000
C254        C  0.36797976  0.21339406  0.11310986    -0.22000
C255        C  0.50326734  0.23719496  0.05050291    -0.17300
C256        C  0.39690944  0.23467568  0.05556653    -0.17300
C257        C  0.40268358  0.25368827  0.13885028    -0.17300
C258        C  0.50920048  0.26405754  0.13384642    -0.17300
H259        H  0.47445507  0.27247348  0.34140580     0.15600
H260        H  0.41646338  0.26799714  0.34351551     0.15600
H261        H  0.48398481  0.32482767  0.16927757     0.15600
H262        H  0.42579680  0.31752577  0.17252304     0.15600
H263        H  0.55663704  0.19697144  0.07108216     0.13900
H264        H  0.55984171  0.21210785  0.11682621     0.13900
H265        H  0.34545186  0.20048649  0.08027537     0.13900
H266        H  0.35106755  0.20490518  0.12576484     0.13900
H267        H  0.45241419  0.22039555  0.07546260     0.27100
H268        H  0.45638643  0.22598385  0.11928098     0.27100
O269        O  0.78754746  0.08585908  0.18169942    -0.73500
O270        O  0.73331321  0.17619689  0.20621403    -0.73500
O271        O  0.78157525  0.17768476  0.17767911    -0.73500
O272        O  0.73987027  0.08366608  0.21074508    -0.73600
O273        O  0.76909427  0.09274070  0.24183002    -0.73500
O274        O  0.81126264  0.18625305  0.20852536    -0.73500
O275        O  0.76279517  0.18569654  0.23715778    -0.73500
O276        O  0.81754996  0.09359079  0.21239085    -0.73500
Ni277      Ni  0.75955152  0.13057968  0.19305440     1.25400
Ni278      Ni  0.79122018  0.13988506  0.22615233     1.25400
C279        C  0.81208844  0.07662472  0.19208061     0.88700
C280        C  0.73858296  0.19465931  0.22604691     0.88700
C281        C  0.80419966  0.19570087  0.18722524     0.88700
C282        C  0.74707788  0.07352707  0.23198263     0.88900
O283        O  0.73134025  0.31982587  0.30259915    -0.73500
O284        O  0.78173081  0.40954381  0.32991042    -0.73500
O285        O  0.73308512  0.41452772  0.30151525    -0.73500
O286        O  0.78039074  0.31729958  0.33058117    -0.73600
O287        O  0.80710125  0.31159181  0.29784857    -0.73500
O288        O  0.76412857  0.41278657  0.27112244    -0.73500
O289        O  0.81206086  0.40308214  0.29925863    -0.73500
O290        O  0.75871427  0.31973887  0.27005288    -0.73500
Ni291      Ni  0.75529213  0.36530677  0.31719033     1.25400
Ni292      Ni  0.78626937  0.36168559  0.28334023     1.25400
C293        C  0.73672595  0.30503468  0.28186843     0.88700
C294        C  0.80643343  0.41797120  0.31997744     0.88700
C295        C  0.74207111  0.43102171  0.28186764     0.88700
C296        C  0.80315005  0.30172456  0.31949145     0.88900
C297        C  0.35854127  0.25881281  0.35762896     0.24600
C298        C  0.37316086  0.22393374  0.03856993    -0.23500
C299        C  0.36241135  0.17881826  0.03853594     0.19500
C300        C  0.33626045  0.16945103  0.02707376     0.24500
C301        C  0.32238568  0.20306438  0.34536052    -0.23500
C302        C  0.33437054  0.24730457  0.34345955     0.19400
F303        F  0.32213258  0.27941054  0.32865826    -0.13400
F304        F  0.36791188  0.30311343  0.35776217    -0.15800
F305        F  0.32407544  0.12750953  0.03046959    -0.15800
F306        F  0.37611620  0.14453467  0.05121356    -0.13400
C307        C  0.35822022  0.06146988  0.33489139     0.24600
C308        C  0.32959805  0.04359069  0.33578639    -0.23500
C309        C  0.32372374  0.00723607  0.35153567     0.19500
C310        C  0.34689593  0.99091580  0.03340875     0.24500
C311        C  0.37399095  0.01388545  0.03480127    -0.23500
C312        C  0.38002967  0.04867503  0.01813177     0.19400
F313        F  0.40573912  0.07200090  0.01891723    -0.13400
F314        F  0.36466761  0.09680338  0.32000000    -0.15800
F315        F  0.34109104  0.95515264  0.04818597    -0.15800
F316        F  0.29642861  0.98875389  0.35243326    -0.13400
C317        C  0.32791646  0.48805337  0.17904100     0.24600
C318        C  0.32940194  0.44151723  0.18641660    -0.23500
C319        C  0.35395052  0.41407362  0.17988829     0.19500
C320        C  0.37491724  0.43082716  0.16424369     0.24500
C321        C  0.37395288  0.47738033  0.15686324    -0.23500
C322        C  0.35080574  0.50644956  0.16526167     0.19400
F323        F  0.34998626  0.55223016  0.15965294    -0.13400
F324        F  0.30467112  0.51563472  0.18539643    -0.15800
F325        F  0.39612397  0.40117553  0.15605472    -0.15800
F326        F  0.35719996  0.37015780  0.18815383    -0.13400
C327        C  0.32920420  0.30370076  0.15763210     0.24600
C328        C  0.32549385  0.28405103  0.18015307    -0.23500
C329        C  0.34829332  0.25555884  0.18960550     0.19500
C330        C  0.37416706  0.24674147  0.17668248     0.24500
C331        C  0.37784367  0.26734761  0.15449590    -0.23500
C332        C  0.35536634  0.29652330  0.14535353     0.19400
F333        F  0.35872135  0.31775183  0.12416865    -0.13400
F334        F  0.30860096  0.33327390  0.14818043    -0.15800
F335        F  0.39544996  0.21790296  0.18567390    -0.15800
F336        F  0.34562596  0.23672583  0.21139472    -0.13400
C337        C  0.56061407  0.50665783  0.18705554     0.24600
C338        C  0.58266217  0.47746239  0.17730871    -0.23500
C339        C  0.57886053  0.46123503  0.15434259     0.19500
C340        C  0.55270635  0.47037120  0.14221355     0.24500
C341        C  0.53049460  0.49943605  0.15178254    -0.23500
C342        C  0.53500680  0.51847690  0.17413830     0.19400
F343        F  0.51448613  0.54776628  0.18357040    -0.13400
F344        F  0.56370118  0.52312873  0.20915904    -0.15800
F345        F  0.54893902  0.45019603  0.12097401    -0.15800
F346        F  0.59959919  0.43349504  0.14409289    -0.13400
C347        C  0.58128135  0.31876431  0.15232395     0.24600
C348        C  0.58126685  0.31242366  0.17686721    -0.23500
C349        C  0.55818912  0.28749623  0.18716731     0.19500
C350        C  0.53544650  0.26998419  0.17322870     0.24500
C351        C  0.53447603  0.27915266  0.14884933    -0.23500
C352        C  0.55773543  0.30393544  0.13868191     0.19400
F353        F  0.55721705  0.31554688  0.11552372    -0.13400
F354        F  0.60336279  0.34161084  0.14146268    -0.15800
F355        F  0.51414500  0.24466537  0.18365808    -0.15800
F356        F  0.55759254  0.28013643  0.21073872    -0.13400
C357        C  0.51776706  0.19915688  0.01227732     0.24600
C358        C  0.52463301  0.22937493  0.03074386    -0.23500
C359        C  0.55235407  0.25057721  0.03059909     0.19500
C360        C  0.57289990  0.23868063  0.34722302     0.24500
C361        C  0.56667726  0.20535859  0.33012341    -0.23500
C362        C  0.53787189  0.18810155  0.32882074     0.19400
F363        F  0.53110598  0.15520540  0.31290146    -0.13400
F364        F  0.49166565  0.17685113  0.01200036    -0.15800
F365        F  0.60039694  0.25621092  0.34890859    -0.15800
F366        F  0.55926327  0.28188607  0.04727647    -0.13400
C367        C  0.55904360  0.08071532  0.02056261     0.24600
C368        C  0.57293912  0.04677345  0.34077790    -0.23500
C369        C  0.56213607  0.00157153  0.34014031     0.19500
C370        C  0.53794641  0.98966716  0.35439553     0.24500
C371        C  0.52391758  0.02515895  0.03436722    -0.23500
C372        C  0.53299548  0.07098751  0.03215566     0.19400
F373        F  0.51851643  0.10555569  0.04377054    -0.13400
F374        F  0.57064032  0.12301498  0.02336904    -0.15800
F375        F  0.52998089  0.94474716  0.35602346    -0.15800
F376        F  0.57594139  0.96874131  0.32695706    -0.13400
C377        C  0.05633213  0.26275425  0.03541227     0.24600
C378        C  0.02734820  0.28079994  0.03291978    -0.23500
C379        C  0.02016248  0.30731007  0.01280455     0.19500
C380        C  0.04146378  0.31547513  0.32856623     0.24500
C381        C  0.07123809  0.30245727  0.33231305    -0.23500
C382        C  0.07846123  0.27384569  0.35174280     0.19400
F383        F  0.10688313  0.26006022  0.35583650    -0.13400
F384        F  0.06363272  0.23493948  0.05396120    -0.15800
F385        F  0.03334462  0.34230126  0.30989986    -0.15800
F386        F  0.99265184  0.32625734  0.00996348    -0.13400
C387        C  0.86549029  0.27615046  0.16971264     0.24600
C388        C  0.87008642  0.26275754  0.14632308    -0.23500
C389        C  0.85065204  0.23158251  0.13593209     0.19500
C390        C  0.82769551  0.21290747  0.14886003     0.24500
C391        C  0.82414731  0.22379805  0.17273164    -0.23500
C392        C  0.84287892  0.25636877  0.18295089     0.19400
F393        F  0.83978789  0.26812934  0.20586189    -0.13400
F394        F  0.88360969  0.30698126  0.17992057    -0.15800
F395        F  0.81045484  0.18120469  0.13838898    -0.15800
F396        F  0.85501409  0.21676132  0.11359504    -0.13400
C397        C  0.85694363  0.29135110  0.32577693     0.24600
C398        C  0.82803189  0.28008519  0.33262977    -0.23500
C399        C  0.82375239  0.25911573  0.02131573     0.19500
C400        C  0.84759530  0.25291864  0.03682314     0.24500
C401        C  0.87546805  0.27109839  0.03130663    -0.23500
C402        C  0.88011782  0.28834540  0.34181289     0.19400
F403        F  0.90627073  0.30734023  0.33584525    -0.13400
F404        F  0.86242513  0.31003316  0.30430912    -0.15800
F405        F  0.84303610  0.23168636  0.05782541    -0.15800
F406        F  0.79640367  0.24612130  0.02811577    -0.13400
C407        C  0.04340018  0.45349697  0.32563481     0.24600
C408        C  0.07232908  0.46520977  0.33217526    -0.23500
C409        C  0.07686821  0.48701401  0.02070534     0.19500
C410        C  0.05310444  0.49298387  0.03616370     0.24500
C411        C  0.02559023  0.47314366  0.03115556    -0.23500
C412        C  0.02098889  0.45428936  0.00884348     0.19400
F413        F  0.99511365  0.43407239  0.00330292    -0.13400
F414        F  0.03773192  0.43446315  0.30442110    -0.15800
F415        F  0.05752179  0.51510579  0.05677652    -0.15800
F416        F  0.10413086  0.50085359  0.02719862    -0.13400
C417        C  0.84498346  0.47800432  0.36992029     0.24600
C418        C  0.87387468  0.45766779  0.03490482    -0.23500
C419        C  0.88109003  0.43197316  0.01472155     0.19500
C420        C  0.85990316  0.42423359  0.99746764     0.24500
C421        C  0.83005596  0.43959446  0.33392381    -0.23500
C422        C  0.82316780  0.46758147  0.35338352     0.19400
F423        F  0.79517008  0.48403579  0.35666149    -0.13400
F424        F  0.83782313  0.50594466  0.38819562    -0.15800
F425        F  0.86802814  0.39942086  0.97834035    -0.15800
F426        F  0.90848033  0.41256068  0.01209632    -0.13400
C427        C  0.85566929  0.01942567  0.18982843     0.24600
C428        C  0.83493625  0.04968092  0.17888841    -0.23500
C429        C  0.83674834  0.05652957  0.15441943     0.19500
C430        C  0.85869824  0.03450972  0.14124752     0.24500
C431        C  0.87900572  0.00335992  0.15186689    -0.23500
C432        C  0.87721959  0.99577138  0.17633381     0.19400
F433        F  0.89639711  0.96568958  0.18711919    -0.13400
F434        F  0.85485114  0.01227695  0.21339963    -0.15800
F435        F  0.86063759  0.04496872  0.11800443    -0.15800
F436        F  0.81792633  0.08643149  0.14315180    -0.13400
C437        C  0.07023807  0.19174404  0.15170366     0.24600
C438        C  0.07215209  0.19736564  0.17615780    -0.23500
C439        C  0.05166476  0.22699165  0.18740566     0.19500
C440        C  0.02958537  0.25046963  0.17431887     0.24500
C441        C  0.02705936  0.24328495  0.14993445    -0.23500
C442        C  0.04773553  0.21360080  0.13888141     0.19400
F443        F  0.04551594  0.20399107  0.11564137    -0.13400
F444        F  0.08925802  0.16287188  0.14019591    -0.15800
F445        F  0.01053160  0.27975903  0.18548724    -0.15800
F446        F  0.05317113  0.23347471  0.21095636    -0.13400
C447        C  0.06296576  0.98994743  0.18277902     0.24600
C448        C  0.08279281  0.02064428  0.17209669    -0.23500
C449        C  0.08018149  0.02968910  0.14786867     0.19500
C450        C  0.05679012  0.01193373  0.13508619     0.24500
C451        C  0.03604576  0.98316535  0.14598707    -0.23500
C452        C  0.03994208  0.97103808  0.16973893     0.19400
F453        F  0.02077827  0.94222591  0.18046706    -0.13400
F454        F  0.06533960  0.97928766  0.20597607    -0.15800
F455        F  0.05342547  0.02537337  0.11230967    -0.15800
F456        F  0.09878814  0.05896360  0.13682169    -0.13400
O457        O  0.09455171  0.06008805  0.54057229    -0.73500
O458        O  0.13486950  0.15559931  0.57308690    -0.73500
O459        O  0.08812626  0.15280138  0.54273790    -0.73500
O460        O  0.14168561  0.06221377  0.57015335    -0.73600
O461        O  0.17236131  0.07108723  0.53985243    -0.73500
O462        O  0.11899809  0.15966155  0.51248313    -0.73500
O463        O  0.16520119  0.16431204  0.54263234    -0.73500
O464        O  0.12523702  0.06756766  0.51027555    -0.73500
Ni465      Ni  0.11376112  0.10734873  0.55778088     1.25400
Ni466      Ni  0.14656874  0.11585309  0.52528734     1.25400
C467        C  0.10235994  0.04962981  0.51966029     0.88700
C468        C  0.15674442  0.17562630  0.56336498     0.88700
C469        C  0.09438757  0.16947071  0.52243232     0.88700
C470        C  0.16617383  0.05290652  0.55969554     0.88900
N471        N  0.95534562  0.96703385  0.46391933    -0.35600
N472        N  0.90841515  0.46839662  0.42810612    -0.56200
N473        N  0.94992558  0.46561141  0.39084391    -0.35600
N474        N  0.99612813  0.46415876  0.42488980    -0.56200
C475        C  0.93254206  0.98842140  0.47504576     0.27900
C476        C  0.98067533  0.98265349  0.47333833     0.27900
C477        C  0.92484909  0.47950772  0.37989459     0.27900
C478        C  0.97275384  0.48221642  0.37837302     0.27900
C479        C  0.89394025  0.96093073  0.44857652     0.36600
C480        C  0.89064733  0.45495177  0.41044752     0.36600
C481        C  0.01344641  0.95079660  0.44325196     0.36600
C482        C  0.01093990  0.45270743  0.40523089     0.36600
C483        C  0.94350211  0.01769038  0.49202392    -0.20900
C484        C  0.97396226  0.01391853  0.49099395    -0.20900
C485        C  0.93158767  0.50570717  0.36020072    -0.20900
C486        C  0.96201780  0.50797273  0.35940424    -0.20900
C487        C  0.86683977  0.94153671  0.44391837    -0.22000
C488        C  0.86495523  0.43679663  0.41958335    -0.22000
C489        C  0.03892375  0.92879241  0.43516251    -0.28400
C490        C  0.03717731  0.42953233  0.41090522    -0.22000
C491        C  0.90234214  0.98119271  0.46999899    -0.17300
C492        C  0.00936938  0.96908823  0.46581250    -0.17300
C493        C  0.00260977  0.47005812  0.38292992    -0.17300
C494        C  0.89655710  0.46485834  0.38653269    -0.17300
H495        H  0.93098072  0.04004912  0.50366901     0.15600
H496        H  0.98931365  0.03290282  0.50161790     0.15600
H497        H  0.91607707  0.52073604  0.68205974     0.15600
H498        H  0.97459781  0.52541566  0.68040114     0.15600
H499        H  0.84971989  0.93360783  0.45648171     0.13900
H500        H  0.84628512  0.42379181  0.40999324     0.13900
H501        H  0.05754872  0.91632604  0.44553342     0.13900
H502        H  0.05409104  0.41704239  0.39897684     0.13900
H503        H  0.95371623  0.94114178  0.45133276     0.27100
H504        H  0.95131816  0.44085664  0.40426970     0.27100
N505        N  0.90817227  0.27796102  0.42438113    -0.35600
N506        N  0.95046859  0.27850633  0.46289690    -0.56200
N507        N  0.99505318  0.26955204  0.42614582    -0.35600
N508        N  0.95212095  0.27090813  0.38940196    -0.56200
C509        C  0.89258076  0.29425390  0.44279222     0.27900
C510        C  0.89299020  0.28963978  0.40472746     0.27900
C511        C  0.00975514  0.28154728  0.44569663     0.27900
C512        C  0.01115342  0.28330511  0.40746856     0.27900
C513        C  0.92557921  0.26524002  0.47382393     0.36600
C514        C  0.97328894  0.25853363  0.47475388     0.36600
C515        C  0.92870042  0.25701827  0.37693795     0.36600
C516        C  0.97644792  0.25693299  0.37770896     0.36600
C517        C  0.86762596  0.31818869  0.43482692    -0.20900
C518        C  0.86809474  0.31589152  0.41064349    -0.20900
C519        C  0.03537132  0.30399135  0.43957843    -0.20900
C520        C  0.03598136  0.30598427  0.41534262    -0.20900
C521        C  0.93253456  0.23731789  0.49304266    -0.22000
C522        C  0.96290918  0.23284884  0.49356797    -0.22000
C523        C  0.93816610  0.23290469  0.35726417    -0.22000
C524        C  0.96864368  0.23338397  0.35760641    -0.22000
C525        C  0.89694710  0.27758581  0.46582379    -0.17300
C526        C  0.89949722  0.27118777  0.38235713    -0.17300
C527        C  0.00493001  0.27110574  0.38394034    -0.17300
C528        C  0.00306507  0.26386547  0.46814304    -0.17300
H529        H  0.85005462  0.33307636  0.44541178     0.15600
H530        H  0.85116004  0.32955106  0.39891056     0.15600
H531        H  0.05230058  0.31599362  0.45135397     0.15600
H532        H  0.05339031  0.32063297  0.40483337     0.15600
H533        H  0.91739200  0.22069206  0.50494945     0.13900
H534        H  0.97566993  0.21211285  0.50598659     0.13900
H535        H  0.92500893  0.21770904  0.67745734     0.13900
H536        H  0.98369917  0.21941804  0.67819798     0.13900
H537        H  0.92506260  0.25290905  0.42550486     0.27100
H538        H  0.97744497  0.24688070  0.42579694     0.27100
O539        O  0.13617630  0.33619037  0.60385039    -0.73500
O540        O  0.09301923  0.43515393  0.63140125    -0.73500
O541        O  0.14158871  0.42947086  0.60406788    -0.73500
O542        O  0.08837177  0.34337002  0.63201002    -0.73600
O543        O  0.11859090  0.33508842  0.66275488    -0.73500
O544        O  0.16862511  0.42707411  0.63686139    -0.73500
O545        O  0.11949218  0.42745735  0.66428909    -0.73500
O546        O  0.16708760  0.33237636  0.63437670    -0.73500
Ni547      Ni  0.11401277  0.38623423  0.61661326     1.25400
Ni548      Ni  0.14478477  0.38038688  0.65062912     1.25400
C549        C  0.15823623  0.31733334  0.61445079     0.88700
C550        C  0.09695238  0.44402052  0.65306566     0.88700
C551        C  0.16330955  0.44357502  0.61634605     0.88700
C552        C  0.09408903  0.32683034  0.65254884     0.88900
C553        C  0.67741263  0.21559839  0.60246213     0.87500
C554        C  0.69554492  0.19114165  0.58364013    -0.52800
C555        C  0.71420614  0.21852257  0.57155442     0.10400
C556        C  0.71113581  0.27029167  0.57797139     0.21300
C557        C  0.69979283  0.24233040  0.61738446    -0.53500
C558        C  0.71709209  0.27149766  0.60453091     0.10500
C559        C  0.66018691  0.25340631  0.58921966    -0.53000
C560        C  0.67758072  0.28250626  0.57641648     0.11100
H561        H  0.69433273  0.15445849  0.58038156     0.15600
H562        H  0.72531911  0.29351359  0.56746534     0.01300
H563        H  0.70063445  0.24030545  0.30312400     0.15900
H564        H  0.63633409  0.25770023  0.59045715     0.15700
C565        C  0.72863168  0.04039301  0.57862147     0.87500
C566        C  0.74606156  0.00183622  0.59097143    -0.52800
C567        C  0.72888032  0.47277831  0.60406697     0.10400
C568        C  0.69537796  0.48547805  0.60351968     0.21300
C569        C  0.70527602  0.01487841  0.56419219    -0.53500
C570        C  0.68820249  0.48552727  0.57711677     0.10500
C571        C  0.71165847  0.06448135  0.59835928    -0.53000
C572        C  0.69324860  0.03689105  0.61077854     0.11100
H573        H  0.76984062  0.99729497  0.58913466     0.15600
H574        H  0.68155463  0.46196408  0.61416628     0.01300
H575        H  0.70345448  0.01765742  0.54521254     0.15900
H576        H  0.71300591  0.10111240  0.60168431     0.15700
O577        O  0.62040373  0.07888821  0.66913174    -0.73500
O578        O  0.66491983  0.17148596  0.63716428    -0.73500
O579        O  0.61516178  0.17044168  0.66339257    -0.73500
O580        O  0.67147379  0.07876557  0.64245937    -0.73600
O581        O  0.64431953  0.06802751  0.61031069    -0.73500
O582        O  0.58759803  0.15951852  0.63152458    -0.73500
O583        O  0.63796114  0.16095454  0.60492707    -0.73500
O584        O  0.59352881  0.06780894  0.63685692    -0.73500
Ni585      Ni  0.64403976  0.12493006  0.65413426     1.25400
Ni586      Ni  0.61503222  0.11353008  0.61968319     1.25400
C587        C  0.59784250  0.06199670  0.65891234     0.88700
C588        C  0.65873227  0.18156716  0.61574976     0.88700
C589        C  0.59147252  0.17839614  0.65157318     0.88700
C590        C  0.66785836  0.06007970  0.62236682     0.88900
O591        O  0.67428603  0.34120380  0.54617201    -0.73500
O592        O  0.62900331  0.43892101  0.51587964    -0.73500
O593        O  0.67592980  0.43590988  0.54573554    -0.73500
O594        O  0.62753652  0.34683644  0.51592876    -0.73600
O595        O  0.59551433  0.35100952  0.54555310    -0.73500
O596        O  0.64589568  0.43705354  0.57675120    -0.73500
O597        O  0.59876324  0.44321659  0.54669535    -0.73500
O598        O  0.64180857  0.34313231  0.57558325    -0.73500
Ni599      Ni  0.65303412  0.39074129  0.52998439     1.25400
Ni600      Ni  0.61963997  0.39378050  0.56237325     1.25400
C601        C  0.66435951  0.32466537  0.56550051     0.88700
C602        C  0.60504203  0.45390698  0.52547990     0.88700
C603        C  0.66888221  0.45139919  0.56601628     0.88700
C604        C  0.60258738  0.33669482  0.52499431     0.88900
O605        O  0.25676534  0.31244902  0.57888041    -0.73500
O606        O  0.30992350  0.40075954  0.55270628    -0.73500
O607        O  0.26170321  0.40588196  0.58081008    -0.73500
O608        O  0.30530863  0.30947360  0.55014044    -0.73600
O609        O  0.27692752  0.32020639  0.51846094    -0.73500
O610        O  0.23088018  0.41237514  0.55027300    -0.73500
O611        O  0.27971809  0.41208390  0.52209135    -0.73500
O612        O  0.22856678  0.31844217  0.54681681    -0.73500
Ni613      Ni  0.28419504  0.35671935  0.56689471     1.25400
Ni614      Ni  0.25273669  0.36596580  0.53339877     1.25400
C615        C  0.23422002  0.30027166  0.56701707     0.88700
C616        C  0.30434828  0.41900734  0.53257507     0.88700
C617        C  0.23968019  0.42569137  0.57039239     0.88700
C618        C  0.30027565  0.30333172  0.52826918     0.88900
C619        C  0.22312911  0.03348032  0.60610175     0.87500
C620        C  0.20738213  0.05724090  0.58564544    -0.52800
C621        C  0.18999441  0.02955179  0.57288254     0.10400
C622        C  0.19200832  0.47823124  0.58048418     0.21300
C623        C  0.19906813  0.00780007  0.61994637    -0.53500
C624        C  0.18326943  0.47811078  0.60646764     0.10500
C625        C  0.24159022  0.99496074  0.59498369    -0.53000
C626        C  0.22550776  0.46594048  0.58150389     0.11100
H627        H  0.20886115  0.09385886  0.58195396     0.15600
H628        H  0.17897730  0.45468712  0.56938189     0.01300
H629        H  0.19624607  0.00989411  0.30539780     0.15900
H630        H  0.26529596  0.99091282  0.59757731     0.15700
O631        O  0.30995308  0.08895925  0.63682798    -0.73500
O632        O  0.25612088  0.18168094  0.61302522    -0.73500
O633        O  0.30485028  0.18070139  0.64140421    -0.73500
O634        O  0.26155063  0.08868990  0.60899455    -0.73600
O635        O  0.23304327  0.07833785  0.64047377    -0.73500
O636        O  0.27580222  0.17093018  0.67265656    -0.73500
O637        O  0.22665897  0.17127853  0.64394556    -0.73500
O638        O  0.28130331  0.07901354  0.66824345    -0.73500
Ni639      Ni  0.28399412  0.13555518  0.62389420     1.25400
Ni640      Ni  0.25305167  0.12490951  0.65743071     1.25400
C641        C  0.30518084  0.07023002  0.65687298     0.88700
C642        C  0.23191431  0.18999132  0.62391908     0.88700
C643        C  0.29901515  0.18721766  0.66311488     0.88700
C644        C  0.24048613  0.06798552  0.61948794     0.88900
C645        C  0.17409829  0.21001452  0.57747720     0.87500
C646        C  0.15583756  0.24796686  0.58948572    -0.52800
C647        C  0.17223015  0.27668386  0.60322195     0.10400
C648        C  0.20572521  0.26467144  0.60341065     0.21300
C649        C  0.19772167  0.23664551  0.56365230    -0.53500
C650        C  0.21390730  0.26588582  0.57713043     0.10500
C651        C  0.19042888  0.18567192  0.59763189    -0.53000
C652        C  0.20777513  0.21316228  0.61074070     0.11100
H653        H  0.13209238  0.25204878  0.58717373     0.15600
H654        H  0.21899520  0.28792933  0.61448544     0.01300
H655        H  0.20039463  0.23441388  0.54474564     0.15900
H656        H  0.18914291  0.14893446  0.60097037     0.15700
N657        N  0.44822721  0.00506312  0.39383005    -0.35600
N658        N  0.49295790  0.51122189  0.42850819    -0.56200
N659        N  0.44889263  0.50712578  0.46617738    -0.35600
N660        N  0.40342492  0.49821578  0.43021353    -0.56200
C661        C  0.47245674  0.99865077  0.38021324     0.27900
C662        C  0.42450821  0.99316723  0.38107257     0.27900
C663        C  0.47434342  0.49749368  0.47803383     0.27900
C664        C  0.42626541  0.49065665  0.47915215     0.27900
C665        C  0.50927154  0.02221073  0.40976264     0.36600
C666        C  0.50877058  0.52415251  0.44733876     0.36600
C667        C  0.38603565  0.00848179  0.41126455     0.36600
C668        C  0.38641971  0.50419922  0.44957169     0.36600
C669        C  0.46399675  0.98207153  0.35850138    -0.20900
C670        C  0.43373092  0.97803715  0.35914881    -0.20900
C671        C  0.46783809  0.47570764  0.49907572    -0.20900
C672        C  0.43756492  0.47221317  0.50001435    -0.20900
C673        C  0.53589262  0.04075278  0.41682865    -0.22000
C674        C  0.53518449  0.54308767  0.44025429    -0.22000
C675        C  0.35795939  0.02156928  0.41871093    -0.22000
C676        C  0.35798888  0.51744836  0.44288212    -0.22000
C677        C  0.50116094  0.01281681  0.38625479    -0.17300
C678        C  0.39486069  0.00304006  0.38746022    -0.17300
C679        C  0.39576581  0.49328345  0.47281982    -0.17300
C680        C  0.50310684  0.50888216  0.47039472    -0.17300
H681        H  0.47764686  0.97658132  0.67652323     0.15600
H682        H  0.41970199  0.96883277  0.67785152     0.15600
H683        H  0.48320357  0.46380124  0.51249742     0.15600
H684        H  0.42548194  0.45763935  0.51456239     0.15600
H685        H  0.55461093  0.05017175  0.40619613     0.13900
H686        H  0.55303681  0.55449137  0.45131545     0.13900
H687        H  0.33916128  0.03221386  0.40809680     0.13900
H688        H  0.33890278  0.52357201  0.45384073     0.13900
H689        H  0.44718295  0.02399382  0.40925238     0.27100
H690        H  0.44693864  0.52669985  0.45080212     0.27100
N691        N  0.44982938  0.23970873  0.39292955    -0.35600
N692        N  0.49696398  0.25162350  0.42612319    -0.56200
N693        N  0.45483528  0.25367303  0.46500083    -0.35600
N694        N  0.40826105  0.24281005  0.43043008    -0.56200
C695        C  0.47261189  0.24916209  0.37854279     0.27900
C696        C  0.42459097  0.24693907  0.38060333     0.27900
C697        C  0.47857168  0.27443807  0.47431007     0.27900
C698        C  0.43064648  0.26913484  0.47670895     0.27900
C699        C  0.51214627  0.23432327  0.40758169     0.36600
C700        C  0.51435921  0.24520661  0.44523771     0.36600
C701        C  0.39019288  0.22940129  0.41302531     0.36600
C702        C  0.39390103  0.23458104  0.45070727     0.36600
C703        C  0.46178594  0.26351968  0.35682850    -0.20900
C704        C  0.43144826  0.26127408  0.35798696    -0.20900
C705        C  0.46930377  0.30362238  0.49225073    -0.20900
C706        C  0.43896543  0.29994796  0.49388191    -0.20900
C707        C  0.53907656  0.21572230  0.41508778    -0.22000
C708        C  0.54056148  0.22295071  0.43893759    -0.22000
C709        C  0.36410263  0.21286964  0.42243197    -0.22000
C710        C  0.36681841  0.21502431  0.44627141    -0.22000
C711        C  0.50254802  0.23884102  0.38390895    -0.17300
C712        C  0.39621738  0.23551021  0.38883131    -0.17300
C713        C  0.40156936  0.25497349  0.47212732    -0.17300
C714        C  0.50818561  0.26520752  0.46737476    -0.17300
H715        H  0.47452388  0.27215125  0.67443220     0.15600
H716        H  0.41645549  0.26842235  0.67681391     0.15600
H717        H  0.48288553  0.32535421  0.50302199     0.15600
H718        H  0.42468542  0.31814387  0.50611214     0.15600
H719        H  0.55611664  0.19946152  0.40447912     0.13900
H720        H  0.55904577  0.21391618  0.45027441     0.13900
H721        H  0.34446702  0.20210669  0.41336373     0.13900
H722        H  0.34978896  0.20672643  0.45886034     0.13900
H723        H  0.45169568  0.22218315  0.40892461     0.27100
H724        H  0.45537474  0.22739491  0.45255344     0.27100
O725        O  0.78732383  0.08657790  0.51426468    -0.73500
O726        O  0.73328984  0.17682289  0.53917262    -0.73500
O727        O  0.78146609  0.17848490  0.51043196    -0.73500
O728        O  0.73979787  0.08411953  0.54341643    -0.73600
O729        O  0.76913996  0.09293703  0.57445074    -0.73500
O730        O  0.81129796  0.18670564  0.54122078    -0.73500
O731        O  0.76296563  0.18601673  0.57002488    -0.73500
O732        O  0.81740834  0.09394640  0.54493790    -0.73500
Ni733      Ni  0.75942966  0.13126635  0.52579141     1.25400
Ni734      Ni  0.79124703  0.14022154  0.55882668     1.25400
C735        C  0.81183069  0.07706534  0.52463745     0.88700
C736        C  0.73869452  0.19510993  0.55903200     0.88700
C737        C  0.80418910  0.19631119  0.51994150     0.88700
C738        C  0.74713579  0.07368524  0.56459546     0.88900
O739        O  0.73157940  0.32006796  0.63593137    -0.73500
O740        O  0.78183136  0.41013695  0.66321669    -0.73500
O741        O  0.73336402  0.41479330  0.63455992    -0.73500
O742        O  0.78051764  0.31793821  0.66414492    -0.73600
O743        O  0.80744394  0.31190034  0.63154167    -0.73500
O744        O  0.76461410  0.41273952  0.60430751    -0.73500
O745        O  0.81236926  0.40337256  0.63271804    -0.73500
O746        O  0.75915619  0.31964194  0.60350058    -0.73500
Ni747      Ni  0.75547036  0.36575827  0.65049397     1.25400
Ni748      Ni  0.78666914  0.36178515  0.61679070     1.25400
C749        C  0.73705366  0.30508209  0.61524577     0.88700
C750        C  0.80664107  0.41836658  0.65340523     0.88700
C751        C  0.74245404  0.43104207  0.61488541     0.88700
C752        C  0.80337631  0.30229682  0.65320092     0.88900
C753        C  0.35839978  0.25924647  0.69125842     0.24600
C754        C  0.37257320  0.22457069  0.37180643    -0.23500
C755        C  0.36185411  0.17943391  0.37182558     0.19500
C756        C  0.33577290  0.16997138  0.36028989     0.24500
C757        C  0.32258160  0.20337677  0.67844259    -0.23500
C758        C  0.33422286  0.24792879  0.67702654     0.19400
F759        F  0.32163060  0.28049736  0.66267357    -0.13400
F760        F  0.36753683  0.30365591  0.69181162    -0.15800
F761        F  0.32358814  0.12803940  0.36370853    -0.15800
F762        F  0.37549734  0.14525851  0.38462290    -0.13400
C763        C  0.35794558  0.06141897  0.66748411     0.24600
C764        C  0.32930132  0.04370356  0.66855165    -0.23500
C765        C  0.32342657  0.00772100  0.68452638     0.19500
C766        C  0.34569326  0.99099273  0.36711181     0.24500
C767        C  0.37314644  0.01298050  0.36815270    -0.23500
C768        C  0.37942977  0.04736211  0.35132972     0.19400
F769        F  0.40549636  0.06976115  0.35178923    -0.13400
F770        F  0.36443404  0.09625210  0.65230080    -0.15800
F771        F  0.33957172  0.95574732  0.38212345    -0.15800
F772        F  0.29613077  0.98924638  0.68552842    -0.13400
C773        C  0.32738476  0.48825313  0.51259861     0.24600
C774        C  0.32858401  0.44159420  0.51975071    -0.23500
C775        C  0.35288690  0.41382743  0.51303110     0.19500
C776        C  0.37378414  0.43036807  0.49728502     0.24500
C777        C  0.37307478  0.47701706  0.49006339    -0.23500
C778        C  0.35025813  0.50640701  0.49872709     0.19400
F779        F  0.34982634  0.55231140  0.49341131    -0.13400
F780        F  0.30449650  0.51620016  0.51933812    -0.15800
F781        F  0.39473147  0.40047426  0.48890860    -0.15800
F782        F  0.35601716  0.36989491  0.52129227    -0.13400
C783        C  0.32782360  0.30416353  0.49079369     0.24600
C784        C  0.32413133  0.28439752  0.51329073    -0.23500
C785        C  0.34696971  0.25598001  0.52272857     0.19500
C786        C  0.37293408  0.24752925  0.50986753     0.24500
C787        C  0.37668221  0.26847949  0.48777131    -0.23500
C788        C  0.35411653  0.29750148  0.47862080     0.19400
F789        F  0.35747110  0.31894866  0.45749193    -0.13400
F790        F  0.30705856  0.33337243  0.48127378    -0.15800
F791        F  0.39422300  0.21865804  0.51881875    -0.15800
F792        F  0.34423762  0.23684572  0.54444525    -0.13400
C793        C  0.55994874  0.50596075  0.52020954     0.24600
C794        C  0.58187601  0.47623292  0.51069152    -0.23500
C795        C  0.57780440  0.45882512  0.48798899     0.19500
C796        C  0.55155142  0.46735406  0.47592862     0.24500
C797        C  0.52957939  0.49718028  0.48518477    -0.23500
C798        C  0.53428784  0.51734457  0.50725158     0.19400
F799        F  0.51396097  0.54742905  0.51631345    -0.13400
F800        F  0.56327008  0.52354838  0.54206084    -0.15800
F801        F  0.54751678  0.44610585  0.45499740    -0.15800
F802        F  0.59846360  0.43071735  0.47792593    -0.13400
C803        C  0.58058548  0.31873949  0.48594507     0.24600
C804        C  0.58057541  0.31233399  0.51048462    -0.23500
C805        C  0.55732916  0.28775539  0.52077149     0.19500
C806        C  0.53445592  0.27063770  0.50681326     0.24500
C807        C  0.53344211  0.28013551  0.48246092    -0.23500
C808        C  0.55679286  0.30477290  0.47234321     0.19400
F809        F  0.55620234  0.31692432  0.44925337    -0.13400
F810        F  0.60300103  0.34064153  0.47502062    -0.15800
F811        F  0.51311157  0.24532647  0.51718963    -0.15800
F812        F  0.55674774  0.28022411  0.54432859    -0.13400
C813        C  0.51705680  0.19927448  0.34611960     0.24600
C814        C  0.52384793  0.23047431  0.36416943    -0.23500
C815        C  0.55144344  0.25202830  0.36367644     0.19500
C816        C  0.57329875  0.23732749  0.68036978     0.24500
C817        C  0.56700345  0.20444507  0.66308035    -0.23500
C818        C  0.53810041  0.18761793  0.66155849     0.19400
F819        F  0.53126283  0.15510528  0.64545498    -0.13400
F820        F  0.49104501  0.17670604  0.34620413    -0.15800
F821        F  0.60091030  0.25432537  0.68231810    -0.15800
F822        F  0.55823565  0.28420741  0.37995028    -0.13400
C823        C  0.55802354  0.08018293  0.35429217     0.24600
C824        C  0.57313651  0.04622436  0.67355895    -0.23500
C825        C  0.56204399  0.00117049  0.67320750     0.19500
C826        C  0.53774695  0.99003317  0.68754241     0.24500
C827        C  0.52282981  0.02406263  0.36748437    -0.23500
C828        C  0.53190247  0.07000466  0.36571185     0.19400
F829        F  0.51736840  0.10412694  0.37761841    -0.13400
F830        F  0.56950012  0.12252587  0.35736277    -0.15800
F831        F  0.52951932  0.94528381  0.68952074    -0.15800
F832        F  0.57568390  0.96776314  0.66028727    -0.13400
C833        C  0.05655555  0.26067820  0.36766862     0.24600
C834        C  0.02738268  0.27789652  0.36514477    -0.23500
C835        C  0.01998984  0.30452779  0.34510726     0.19500
C836        C  0.04110313  0.31643118  0.66256674     0.24500
C837        C  0.07085245  0.30292907  0.66598663    -0.23500
C838        C  0.07817657  0.27369101  0.68515158     0.19400
F839        F  0.10653144  0.25901252  0.68874882    -0.13400
F840        F  0.06411588  0.23292112  0.38617862    -0.15800
F841        F  0.03285873  0.34356540  0.64405065    -0.15800
F842        F  0.99227925  0.32268253  0.34223324    -0.13400
C843        C  0.86547772  0.27687354  0.50233219     0.24600
C844        C  0.87062099  0.26253806  0.47915667    -0.23500
C845        C  0.85150199  0.23075965  0.46886835     0.19500
C846        C  0.82830021  0.21248187  0.48168950     0.24500
C847        C  0.82425600  0.22421298  0.50540677    -0.23500
C848        C  0.84267450  0.25736772  0.51550755     0.19400
F849        F  0.83901772  0.27008070  0.53823211    -0.13400
F850        F  0.88315677  0.30852149  0.51237682    -0.15800
F851        F  0.81126214  0.18041567  0.47130487    -0.15800
F852        F  0.85637555  0.21508307  0.44674725    -0.13400
C853        C  0.85716891  0.29164277  0.65966686     0.24600
C854        C  0.82818075  0.28070669  0.66647920    -0.23500
C855        C  0.82377545  0.25874683  0.35456374     0.19500
C856        C  0.84766549  0.25199337  0.36995849     0.24500
C857        C  0.87569221  0.26940189  0.36428901    -0.23500
C858        C  0.88036165  0.28798405  0.67566840     0.19400
F859        F  0.90662344  0.30666952  0.66974868    -0.13400
F860        F  0.86275279  0.31060068  0.63828018    -0.15800
F861        F  0.84301298  0.23109863  0.39103453    -0.15800
F862        F  0.79635582  0.24634331  0.36148699    -0.13400
C863        C  0.04330641  0.45396396  0.65944088     0.24600
C864        C  0.07221274  0.46580264  0.66597322    -0.23500
C865        C  0.07677672  0.48734762  0.35367240     0.19500
C866        C  0.05315101  0.49363777  0.36923049     0.24500
C867        C  0.02540016  0.47456510  0.36423975    -0.23500
C868        C  0.02054394  0.45597832  0.34189086     0.19400
F869        F  0.99443437  0.43649761  0.33634316    -0.13400
F870        F  0.03764297  0.43507226  0.63819383    -0.15800
F871        F  0.05792222  0.51532762  0.38991082    -0.15800
F872        F  0.10417874  0.50069516  0.36008240    -0.13400
C873        C  0.84509596  0.47685541  0.70389561     0.24600
C874        C  0.87372759  0.45881325  0.36788312    -0.23500
C875        C  0.88089896  0.43309264  0.34770395     0.19500
C876        C  0.85958367  0.42487731  0.33061177     0.24500
C877        C  0.83026533  0.43971612  0.66750356    -0.23500
C878        C  0.82334637  0.46709603  0.68718580     0.19400
F879        F  0.79537640  0.48362664  0.69050517    -0.13400
F880        F  0.83790785  0.50431101  0.72235151    -0.15800
F881        F  0.86758748  0.39961944  0.31159944    -0.15800
F882        F  0.90833674  0.41391102  0.34498913    -0.13400
C883        C  0.85508104  0.01939335  0.52252702     0.24600
C884        C  0.83454278  0.04984039  0.51149895    -0.23500
C885        C  0.83648647  0.05664345  0.48704143     0.19500
C886        C  0.85852574  0.03462442  0.47398078     0.24500
C887        C  0.87875525  0.00350338  0.48471283    -0.23500
C888        C  0.87673345  0.99576714  0.50914545     0.19400
F889        F  0.89576665  0.96555663  0.51999885    -0.13400
F890        F  0.85393753  0.01198430  0.54606902    -0.15800
F891        F  0.86061183  0.04501274  0.45073767    -0.15800
F892        F  0.81769524  0.08644071  0.47567905    -0.13400
C893        C  0.07002444  0.19001830  0.48470933     0.24600
C894        C  0.07230034  0.19714713  0.50902825    -0.23500
C895        C  0.05245289  0.22822718  0.51995398     0.19500
C896        C  0.03055798  0.25163984  0.50667001     0.24500
C897        C  0.02761523  0.24295318  0.48245963    -0.23500
C898        C  0.04774049  0.21195686  0.47170061     0.19400
F899        F  0.04516061  0.20120092  0.44861877    -0.13400
F900        F  0.08845580  0.15964606  0.47358448    -0.15800
F901        F  0.01207606  0.28234022  0.51746579    -0.15800
F902        F  0.05443756  0.23618935  0.54335605    -0.13400
C903        C  0.06260587  0.99047497  0.51610671     0.24600
C904        C  0.08275784  0.02060875  0.50539105    -0.23500
C905        C  0.08046725  0.02914589  0.48110691     0.19500
C906        C  0.05703972  0.01162847  0.46828537     0.24500
C907        C  0.03592378  0.98352465  0.47920184    -0.23500
C908        C  0.03955190  0.97173749  0.50303104     0.19400
F909        F  0.02010980  0.94344927  0.51380242    -0.13400
F910        F  0.06466351  0.98027420  0.53937492    -0.15800
F911        F  0.05402455  0.02474900  0.44543681    -0.15800
F912        F  0.09942847  0.05777634  0.47001042    -0.13400
O913        O  0.09505048  0.05967871  0.87423254    -0.73500
O914        O  0.13561805  0.15476891  0.90684782    -0.73500
O915        O  0.08869334  0.15236179  0.87664811    -0.73500
O916        O  0.14235128  0.06139388  0.90372969    -0.73600
O917        O  0.17289097  0.07039342  0.87336018    -0.73500
O918        O  0.11944880  0.15947949  0.84634180    -0.73500
O919        O  0.16585612  0.16361263  0.87634404    -0.73500
O920        O  0.12556568  0.06739037  0.84384525    -0.73500
Ni921      Ni  0.11439035  0.10671079  0.89150776     1.25400
Ni922      Ni  0.14705513  0.11541555  0.85894557     1.25400
C923        C  0.10270650  0.04944927  0.85325499     0.88700
C924        C  0.15749899  0.17476962  0.89711885     0.88700
C925        C  0.09486411  0.16921939  0.85636332     0.88700
C926        C  0.16680613  0.05210832  0.89321111     0.88900
N927        N  0.95558693  0.96601079  0.79779697    -0.35600
N928        N  0.90853401  0.46673813  0.76204541    -0.56200
N929        N  0.95001594  0.46409488  0.72474521    -0.35600
N930        N  0.99613579  0.46272435  0.75872306    -0.56200
C931        C  0.93277308  0.98761347  0.80882641     0.27900
C932        C  0.98091382  0.98207024  0.80702430     0.27900
C933        C  0.92489445  0.47819506  0.71393079     0.27900
C934        C  0.97276627  0.48126129  0.71238216     0.27900
C935        C  0.89412847  0.95945565  0.78260652     0.36600
C936        C  0.89075016  0.45325380  0.74440808     0.36600
C937        C  0.01380294  0.94977980  0.77709327     0.36600
C938        C  0.01110039  0.45178594  0.73907097     0.36600
C939        C  0.94373375  0.01748257  0.82552565    -0.20900
C940        C  0.97418985  0.01384919  0.82443944    -0.20900
C941        C  0.93152096  0.50509220  0.69445738    -0.20900
C942        C  0.96193361  0.50755033  0.69363871    -0.20900
C943        C  0.86695123  0.94027002  0.77798614    -0.22000
C944        C  0.86498715  0.43541275  0.75358296    -0.22000
C945        C  0.03951445  0.92843466  0.76900308    -0.28400
C946        C  0.03758114  0.42932174  0.74474167    -0.22000
C947        C  0.90255549  0.98015688  0.80391520    -0.17300
C948        C  0.00963684  0.96849154  0.79955613    -0.17300
C949        C  0.00266799  0.46931901  0.71683991    -0.17300
C950        C  0.89664666  0.46327350  0.72049684    -0.17300
H951        H  0.93121194  0.04016049  0.83701340     0.15600
H952        H  0.98953742  0.03325934  0.83486147     0.15600
H953        H  0.91643604  0.51921724  0.01446784     0.15600
H954        H  0.97496735  0.52294232  0.01269770     0.15600
H955        H  0.84975555  0.93275737  0.79055302     0.13900
H956        H  0.84626124  0.42253691  0.74401411     0.13900
H957        H  0.05832737  0.91668191  0.77936279     0.13900
H958        H  0.05467146  0.41741835  0.73282109     0.13900
H959        H  0.95398053  0.93973220  0.78541470     0.27100
H960        H  0.95148168  0.43898935  0.73800565     0.27100
N961        N  0.90836947  0.27751626  0.75820493    -0.35600
N962        N  0.95073765  0.27859492  0.79685391    -0.56200
N963        N  0.99523269  0.26943304  0.76015907    -0.35600
N964        N  0.95222950  0.27014424  0.72337538    -0.56200
C965        C  0.89292612  0.29436270  0.77656120     0.27900
C966        C  0.89314841  0.28893782  0.73853183     0.27900
C967        C  0.00999905  0.28127607  0.77971278     0.27900
C968        C  0.01132131  0.28315538  0.74146775     0.27900
C969        C  0.92578513  0.26531324  0.80766980     0.36600
C970        C  0.97347293  0.25836849  0.80871291     0.36600
C971        C  0.92887750  0.25622135  0.71082849     0.36600
C972        C  0.97662717  0.25661065  0.71166234     0.36600
C973        C  0.86801426  0.31832902  0.76853223    -0.20900
C974        C  0.86836087  0.31550036  0.74436934    -0.20900
C975        C  0.03565727  0.30359266  0.77357922    -0.20900
C976        C  0.03623097  0.30563310  0.74933782    -0.20900
C977        C  0.93260948  0.23708133  0.82680568    -0.22000
C978        C  0.96297284  0.23246880  0.82740282    -0.22000
C979        C  0.93847029  0.23245563  0.69108712    -0.22000
C980        C  0.96894245  0.23328132  0.69145842    -0.22000
C981        C  0.89721539  0.27788871  0.79962661    -0.17300
C982        C  0.89963574  0.27029646  0.71620263    -0.17300
C983        C  0.00503300  0.27110989  0.71791935    -0.17300
C984        C  0.00327775  0.26359230  0.80216739    -0.17300
H985        H  0.85051862  0.33353563  0.77908204     0.15600
H986        H  0.85144288  0.32912288  0.73261178     0.15600
H987        H  0.05263966  0.31546009  0.78534386     0.15600
H988        H  0.05367150  0.32016080  0.73881743     0.15600
H989        H  0.91739000  0.22031335  0.83859587     0.13900
H990        H  0.97564498  0.21146828  0.83976591     0.13900
H991        H  0.92489820  0.22123702  0.01067575     0.13900
H992        H  0.98355107  0.22284159  0.01168219     0.13900
H993        H  0.92517297  0.25234319  0.75943016     0.27100
H994        H  0.97756643  0.24687166  0.75981322     0.27100
O995        O  0.13693151  0.33519007  0.93741847    -0.73500
O996        O  0.09376660  0.43439000  0.96469525    -0.73500
O997        O  0.14232810  0.42840517  0.93736597    -0.73500
O998        O  0.08909099  0.34266497  0.96555505    -0.73600
O999        O  0.11927656  0.33456836  0.99632602    -0.73500
O1000       O  0.16929470  0.42638524  0.97019659    -0.73500
O1001       O  0.12012479  0.42689297  0.99764968    -0.73500
O1002       O  0.16784342  0.33168452  0.96794885    -0.73500
Ni1003     Ni  0.11475684  0.38532616  0.95004196     1.25400
Ni1004     Ni  0.14548035  0.37977869  0.98409035     1.25400
C1005       C  0.15902712  0.31650001  0.94804262     0.88700
C1006       C  0.09758312  0.44328803  0.98636788     0.88700
C1007       C  0.16402500  0.44264493  0.94961868     0.88700
C1008       C  0.09472259  0.32642444  0.98616812     0.88900
C1009       C  0.67729951  0.21627412  0.93537260     0.87500
C1010       C  0.69555732  0.19169869  0.91668262    -0.52800
C1011       C  0.71424033  0.21903119  0.90459955     0.10400
C1012       C  0.71105212  0.27087317  0.91086878     0.21300
C1013       C  0.69954828  0.24316757  0.95029396    -0.53500
C1014       C  0.71685442  0.27225142  0.93743936     0.10500
C1015       C  0.66006743  0.25395340  0.92199204    -0.53000
C1016       C  0.67748841  0.28305019  0.90918211     0.11100
H1017       H  0.69451265  0.15492657  0.91359805     0.15600
H1018       H  0.72528575  0.29403871  0.90037463     0.01300
H1019       H  0.70100432  0.23995347  0.63640246     0.15900
H1020       H  0.63621187  0.25822972  0.92318860     0.15700
C1021       C  0.72878514  0.04074267  0.91195881     0.87500
C1022       C  0.74617764  0.00205890  0.92423830    -0.52800
C1023       C  0.72894444  0.47321347  0.93739167     0.10400
C1024       C  0.69540815  0.48589182  0.93676847     0.21300
C1025       C  0.70537992  0.01543643  0.89749956    -0.53500
C1026       C  0.68832894  0.48602252  0.91033071     0.10500
C1027       C  0.71186505  0.06481250  0.93172052    -0.53000
C1028       C  0.69340985  0.03725182  0.94410650     0.11100
H1029       H  0.76995300  0.99747368  0.92239291     0.15600
H1030       H  0.68154528  0.46233333  0.94735445     0.01300
H1031       H  0.70354213  0.01836911  0.87852609     0.15900
H1032       H  0.71319751  0.10147026  0.93501748     0.15700
O1033       O  0.62092135  0.07996777  0.00255299    -0.73500
O1034       O  0.66516856  0.17224104  0.97015165    -0.73500
O1035       O  0.61569460  0.17148796  0.99663860    -0.73500
O1036       O  0.67178324  0.07952994  0.97569365    -0.73600
O1037       O  0.64447567  0.06853391  0.94365467    -0.73500
O1038       O  0.58790832  0.16028762  0.96492552    -0.73500
O1039       O  0.63798658  0.16146656  0.93805701    -0.73500
O1040       O  0.59386720  0.06855993  0.97040414    -0.73500
Ni1041     Ni  0.64445442  0.12585274  0.98734661     1.25400
Ni1042     Ni  0.61522999  0.11415146  0.95304207     1.25400
C1043       C  0.59834246  0.06288974  0.99244628     0.88700
C1044       C  0.65877301  0.18223668  0.94876172     0.88700
C1045       C  0.59192713  0.17935206  0.98491560     0.88700
C1046       C  0.66805437  0.06060965  0.95567479     0.88900
O1047       O  0.67437300  0.34203077  0.87898616    -0.73500
O1048       O  0.62931568  0.44016185  0.84861082    -0.73500
O1049       O  0.67611139  0.43679025  0.87875804    -0.73500
O1050       O  0.62784514  0.34811020  0.84849623    -0.73600
O1051       O  0.59569064  0.35212076  0.87804342    -0.73500
O1052       O  0.64590483  0.43775092  0.90966416    -0.73500
O1053       O  0.59896290  0.44428391  0.87934731    -0.73500
O1054       O  0.64173290  0.34382512  0.90827699    -0.73500
Ni1055     Ni  0.65327229  0.39181164  0.86277468     1.25400
Ni1056     Ni  0.61971083  0.39467510  0.89504863     1.25400
C1057       C  0.66432281  0.32533899  0.89825135     0.88700
C1058       C  0.60531418  0.45516676  0.85816242     0.88700
C1059       C  0.66899398  0.45207767  0.89906977     0.88700
C1060       C  0.60285727  0.33795922  0.85748147     0.88900
O1061       O  0.25784394  0.31142061  0.91265081    -0.73500
O1062       O  0.31072258  0.39990359  0.88597860    -0.73500
O1063       O  0.26247489  0.40505542  0.91416229    -0.73500
O1064       O  0.30644017  0.30850596  0.88386324    -0.73600
O1065       O  0.27788222  0.31839753  0.85222563    -0.73500
O1066       O  0.23162666  0.41093652  0.88362468    -0.73500
O1067       O  0.28042915  0.41039016  0.85536034    -0.73500
O1068       O  0.22956418  0.31686045  0.88062052    -0.73500
Ni1069     Ni  0.28514140  0.35582697  0.90043209     1.25400
Ni1070     Ni  0.25359351  0.36429884  0.86695513     1.25400
C1071       C  0.23528761  0.29894201  0.90086470     0.88700
C1072       C  0.30505433  0.41776188  0.86576311     0.88700
C1073       C  0.24040712  0.42463484  0.90368266     0.88700
C1074       C  0.30136548  0.30199675  0.86202948     0.88900
C1075       C  0.22395380  0.03235007  0.93954266     0.87500
C1076       C  0.20811291  0.05625571  0.91915831    -0.52800
C1077       C  0.19070531  0.02863739  0.90634795     0.10400
C1078       C  0.19267431  0.47742032  0.91367084     0.21300
C1079       C  0.19994195  0.00655376  0.95337645    -0.53500
C1080       C  0.18397443  0.47714865  0.93967929     0.10500
C1081       C  0.24240352  0.99393679  0.92833172    -0.53000
C1082       C  0.22619728  0.46507718  0.91466148     0.11100
H1083       H  0.20948183  0.09294929  0.91560731     0.15600
H1084       H  0.17962266  0.45392271  0.90255976     0.01300
H1085       H  0.19605460  0.01065056  0.63879874     0.15900
H1086       H  0.26611057  0.98988733  0.93091929     0.15700
O1087       O  0.31086299  0.08836804  0.97042680    -0.73500
O1088       O  0.25655442  0.18055348  0.94684145    -0.73500
O1089       O  0.30520440  0.17996361  0.97516668    -0.73500
O1090       O  0.26236253  0.08764100  0.94258861    -0.73600
O1091       O  0.23392523  0.07674693  0.97405705    -0.73500
O1092       O  0.27625536  0.16952212  0.00642296    -0.73500
O1093       O  0.22715430  0.16958566  0.97774959    -0.73500
O1094       O  0.28225692  0.07773587  0.00181233    -0.73500
Ni1095     Ni  0.28461439  0.13466814  0.95758614     1.25400
Ni1096     Ni  0.25374696  0.12336682  0.99111277     1.25400
C1097       C  0.30621752  0.06948679  0.99045266     0.88700
C1098       C  0.23237004  0.18862703  0.95779312     0.88700
C1099       C  0.29934803  0.18622335  0.99688996     0.88700
C1100       C  0.24133466  0.06672162  0.95302350     0.88900
C1101       C  0.17491927  0.20900466  0.91125755     0.87500
C1102       C  0.15670460  0.24720900  0.92307175    -0.52800
C1103       C  0.17306805  0.27584480  0.93686315     0.10400
C1104       C  0.20652674  0.26352031  0.93727825     0.21300
C1105       C  0.19881215  0.23526757  0.89753764    -0.53500
C1106       C  0.21499576  0.26448765  0.91104166     0.10500
C1107       C  0.19092509  0.18462291  0.93155109    -0.53000
C1108       C  0.20824891  0.21202370  0.94472835     0.11100
H1109       H  0.13298823  0.25145232  0.92062867     0.15600
H1110       H  0.21976637  0.28672215  0.94840650     0.01300
H1111       H  0.20160280  0.23292901  0.87864570     0.15900
H1112       H  0.18956365  0.14786377  0.93485444     0.15700
N1113       N  0.44801633  0.00726093  0.72680024    -0.35600
N1114       N  0.49279118  0.51380445  0.76142675    -0.56200
N1115       N  0.44886115  0.50880363  0.79907764    -0.35600
N1116       N  0.40338502  0.49915756  0.76298111    -0.56200
C1117       C  0.47224960  0.00061599  0.71320485     0.27900
C1118       C  0.42429908  0.99504299  0.71411579     0.27900
C1119       C  0.47439616  0.49969408  0.81096574     0.27900
C1120       C  0.42632426  0.49198704  0.81204913     0.27900
C1121       C  0.50903639  0.02499010  0.74261966     0.36600
C1122       C  0.50845875  0.52719326  0.78025679     0.36600
C1123       C  0.38584878  0.00985008  0.74438162     0.36600
C1124       C  0.38630795  0.50431275  0.78236907     0.36600
C1125       C  0.46378096  0.98366957  0.69156949    -0.20900
C1126       C  0.43352300  0.97959243  0.69224987    -0.20900
C1127       C  0.46799195  0.47797300  0.83204305    -0.20900
C1128       C  0.43774019  0.47400398  0.83297237    -0.20900
C1129       C  0.53551865  0.04418024  0.74957716    -0.22000
C1130       C  0.53458623  0.54699906  0.77316449    -0.22000
C1131       C  0.35768057  0.02214087  0.75192834    -0.22000
C1132       C  0.35768645  0.51646637  0.77568219    -0.22000
C1133       C  0.50098631  0.01478035  0.71917643    -0.17300
C1134       C  0.39461415  0.00459080  0.72053675    -0.17300
C1135       C  0.39579744  0.49369221  0.80564812    -0.17300
C1136       C  0.50313461  0.51137191  0.80326974    -0.17300
H1137       H  0.47894931  0.97760954  0.01019059     0.15600
H1138       H  0.42100840  0.96991582  0.01126841     0.15600
H1139       H  0.48339752  0.46631688  0.84548489     0.15600
H1140       H  0.42575399  0.45929543  0.84753584     0.15600
H1141       H  0.55419223  0.05366701  0.73891878     0.13900
H1142       H  0.55230710  0.55887670  0.78422364     0.13900
H1143       H  0.33872231  0.03230877  0.74138420     0.13900
H1144       H  0.33850489  0.52173357  0.78664029     0.13900
H1145       H  0.44697340  0.02634387  0.74217813     0.27100
H1146       H  0.44675962  0.52811909  0.78363375     0.27100
N1147       N  0.45009315  0.23899764  0.72595040    -0.35600
N1148       N  0.49735057  0.25116688  0.75894506    -0.56200
N1149       N  0.45546713  0.25336364  0.79796646    -0.35600
N1150       N  0.40874048  0.24230033  0.76361451    -0.56200
C1151       C  0.47282422  0.24836093  0.71149837     0.27900
C1152       C  0.42479835  0.24666754  0.71376036     0.27900
C1153       C  0.47916985  0.27446352  0.80710541     0.27900
C1154       C  0.43132604  0.26865130  0.80977243     0.27900
C1155       C  0.51238773  0.23337092  0.74045673     0.36600
C1156       C  0.51484313  0.24508377  0.77802149     0.36600
C1157       C  0.39063603  0.22877214  0.74625792     0.36600
C1158       C  0.39456572  0.23375885  0.78394206     0.36600
C1159       C  0.46191372  0.26310264  0.68987111    -0.20900
C1160       C  0.43155398  0.26125196  0.69116625    -0.20900
C1161       C  0.46993693  0.30369906  0.82503457    -0.20900
C1162       C  0.43963892  0.29970577  0.82683588    -0.20900
C1163       C  0.53929588  0.21469547  0.74798724    -0.22000
C1164       C  0.54097259  0.22259046  0.77177310    -0.22000
C1165       C  0.36472394  0.21175794  0.75573705    -0.22000
C1166       C  0.36756464  0.21386996  0.77958348    -0.22000
C1167       C  0.50275710  0.23782205  0.71678854    -0.17300
C1168       C  0.39645082  0.23530286  0.72206149    -0.17300
C1169       C  0.40230478  0.25411415  0.80536201    -0.17300
C1170       C  0.50874248  0.26537582  0.80007979    -0.17300
H1171       H  0.47515339  0.27204566  0.00819975     0.15600
H1172       H  0.41712536  0.26803529  0.01038180     0.15600
H1173       H  0.48352171  0.32561943  0.83570334     0.15600
H1174       H  0.42538102  0.31783903  0.83910531     0.15600
H1175       H  0.55623341  0.19806599  0.73741908     0.13900
H1176       H  0.55949484  0.21373552  0.78310402     0.13900
H1177       H  0.34513226  0.20069448  0.74670602     0.13900
H1178       H  0.35067152  0.20527695  0.79223548     0.13900
H1179       H  0.45199861  0.22129816  0.74189726     0.27100
H1180       H  0.45601446  0.22695970  0.78558331     0.27100
O1181       O  0.78775078  0.08684454  0.84780576    -0.73500
O1182       O  0.73357466  0.17711337  0.87243199    -0.73500
O1183       O  0.78187477  0.17873305  0.84397805    -0.73500
O1184       O  0.74007475  0.08442886  0.87678852    -0.73600
O1185       O  0.76925054  0.09329502  0.90792131    -0.73500
O1186       O  0.81153516  0.18699854  0.87486996    -0.73500
O1187       O  0.76301429  0.18638746  0.90342092    -0.73500
O1188       O  0.81767179  0.09426043  0.87857299    -0.73500
Ni1189     Ni  0.75978921  0.13153135  0.85922055     1.25400
Ni1190     Ni  0.79140700  0.14055364  0.89237504     1.25400
C1191       C  0.81220509  0.07734355  0.85825390     0.88700
C1192       C  0.73884423  0.19551185  0.89227910     0.88700
C1193       C  0.80451279  0.19660359  0.85358124     0.88700
C1194       C  0.74731513  0.07402503  0.89799028     0.88900
O1195       O  0.73144736  0.32032216  0.96893849    -0.73500
O1196       O  0.78192865  0.40977072  0.99638352    -0.73500
O1197       O  0.73341184  0.41495947  0.96777610    -0.73500
O1198       O  0.78033660  0.31755893  0.99713804    -0.73600
O1199       O  0.80708897  0.31138288  0.96444914    -0.73500
O1200       O  0.76474228  0.41317293  0.93757567    -0.73500
O1201       O  0.81250826  0.40279995  0.96591803    -0.73500
O1202       O  0.75890910  0.32021284  0.93643961    -0.73500
Ni1203     Ni  0.75543169  0.36567804  0.98359588     1.25400
Ni1204     Ni  0.78659256  0.36177417  0.94986984     1.25400
C1205       C  0.73683265  0.30563247  0.94818736     0.88700
C1206       C  0.80677677  0.41782965  0.98659257     0.88700
C1207       C  0.74254505  0.43139495  0.94815576     0.88700
C1208       C  0.80308565  0.30175316  0.98611657     0.88900
C1209       C  0.35907238  0.25826919  0.02447038     0.24600
C1210       C  0.37269043  0.22469008  0.70507778    -0.23500
C1211       C  0.36221525  0.17943741  0.70472183     0.19500
C1212       C  0.33621681  0.16997823  0.69305926     0.24500
C1213       C  0.32282221  0.20260604  0.01221296    -0.23500
C1214       C  0.33481687  0.24685725  0.01034915     0.19400
F1215       F  0.32251092  0.27906115  0.99563466    -0.13400
F1216       F  0.36846399  0.30255793  0.02462545    -0.15800
F1217       F  0.32425847  0.12781623  0.69615301    -0.15800
F1218       F  0.37606043  0.14503988  0.71722846    -0.13400
C1219       C  0.35891169  0.06217120  0.00149977     0.24600
C1220       C  0.33052492  0.04342954  0.00213173    -0.23500
C1221       C  0.32494073  0.00661410  0.01767267     0.19500
C1222       C  0.34539682  0.99189199  0.70022220     0.24500
C1223       C  0.37280680  0.01406669  0.70119815    -0.23500
C1224       C  0.37908195  0.04795942  0.68410405     0.19400
F1225       F  0.40506533  0.07058536  0.68444697    -0.13400
F1226       F  0.36511217  0.09777530  0.98670256    -0.15800
F1227       F  0.33932328  0.95682493  0.71535406    -0.15800
F1228       F  0.29793485  0.98710085  0.01817929    -0.13400
C1229       C  0.32745387  0.48726880  0.84548872     0.24600
C1230       C  0.32911114  0.44071337  0.85281185    -0.23500
C1231       C  0.35367221  0.41345564  0.84611924     0.19500
C1232       C  0.37443204  0.43039375  0.83033185     0.24500
C1233       C  0.37324931  0.47695889  0.82294818    -0.23500
C1234       C  0.35011634  0.50584038  0.83152716     0.19400
F1235       F  0.34916481  0.55166648  0.82603391    -0.13400
F1236       F  0.30429272  0.51474405  0.85213561    -0.15800
F1237       F  0.39572046  0.40096049  0.82207607    -0.15800
F1238       F  0.35718804  0.36961252  0.85443154    -0.13400
C1239       C  0.32868819  0.30295236  0.82447001     0.24600
C1240       C  0.32526497  0.28329116  0.84702089    -0.23500
C1241       C  0.34830457  0.25517689  0.85638896     0.19500
C1242       C  0.37413444  0.24674275  0.84334683     0.24500
C1243       C  0.37752603  0.26741444  0.82114048    -0.23500
C1244       C  0.35483625  0.29631314  0.81211794     0.19400
F1245       F  0.35796566  0.31779104  0.79097334    -0.13400
F1246       F  0.30779735  0.33206608  0.81505253    -0.15800
F1247       F  0.39565998  0.21824399  0.85224865    -0.15800
F1248       F  0.34590162  0.23632319  0.87819581    -0.13400
C1249       C  0.55999325  0.50692341  0.85321310     0.24600
C1250       C  0.58223226  0.47811377  0.84341850    -0.23500
C1251       C  0.57854936  0.46226605  0.82036429     0.19500
C1252       C  0.55230552  0.47109011  0.80825869     0.24500
C1253       C  0.52988471  0.49970729  0.81789359    -0.23500
C1254       C  0.53434574  0.51863196  0.84028710     0.19400
F1255       F  0.51376414  0.54780039  0.84973166    -0.13400
F1256       F  0.56295665  0.52322693  0.87535838    -0.15800
F1257       F  0.54869144  0.45110440  0.78695398    -0.15800
F1258       F  0.59956562  0.43530757  0.80995330    -0.13400
C1259       C  0.58061569  0.32068010  0.81843806     0.24600
C1260       C  0.58092008  0.31363021  0.84293641    -0.23500
C1261       C  0.55804091  0.28828967  0.85324061     0.19500
C1262       C  0.53522163  0.27091245  0.83934666     0.24500
C1263       C  0.53399026  0.28061439  0.81503171    -0.23500
C1264       C  0.55698614  0.30595379  0.80486080     0.19400
F1265       F  0.55612208  0.31812118  0.78177585    -0.13400
F1266       F  0.60247325  0.34404474  0.80758389    -0.15800
F1267       F  0.51411041  0.24517387  0.84975148    -0.15800
F1268       F  0.55773256  0.28036895  0.87677047    -0.13400
C1269       C  0.51719958  0.19884005  0.67879302     0.24600
C1270       C  0.52406422  0.22957361  0.69703787    -0.23500
C1271       C  0.55180670  0.25069842  0.69677015     0.19500
C1272       C  0.57382076  0.23773586  0.01406349     0.24500
C1273       C  0.56750175  0.20534612  0.99652404    -0.23500
C1274       C  0.53859271  0.18860944  0.99489162     0.19400
F1275       F  0.53168618  0.15670757  0.97849632    -0.13400
F1276       F  0.49103485  0.17669967  0.67862566    -0.15800
F1277       F  0.60142470  0.25472447  0.01611714    -0.15800
F1278       F  0.55872146  0.28243655  0.71323205    -0.13400
C1279       C  0.55842737  0.08012788  0.68688824     0.24600
C1280       C  0.57382047  0.04691704  0.00721225    -0.23500
C1281       C  0.56302076  0.00167927  0.00701922     0.19500
C1282       C  0.53892774  0.99027971  0.02150860     0.24500
C1283       C  0.52277827  0.02505539  0.70033511    -0.23500
C1284       C  0.53211166  0.07077122  0.69818803     0.19400
F1285       F  0.51773050  0.10548026  0.70977063    -0.13400
F1286       F  0.57036928  0.12209981  0.69001887    -0.15800
F1287       F  0.53088282  0.94544618  0.02351986    -0.15800
F1288       F  0.57671188  0.96840110  0.99404583    -0.13400
C1289       C  0.05644196  0.26063407  0.70125492     0.24600
C1290       C  0.02734529  0.27832959  0.69907890    -0.23500
C1291       C  0.01980628  0.30545622  0.67924605     0.19500
C1292       C  0.04161260  0.31700687  0.99604755     0.24500
C1293       C  0.07127524  0.30329367  0.99975102    -0.23500
C1294       C  0.07829046  0.27487730  0.01929796     0.19400
F1295       F  0.10654246  0.26002140  0.02321713    -0.13400
F1296       F  0.06407675  0.23236120  0.71954488    -0.15800
F1297       F  0.03358059  0.34303133  0.97708384    -0.15800
F1298       F  0.99211837  0.32388892  0.67668226    -0.13400
C1299       C  0.86593037  0.27692414  0.83619029     0.24600
C1300       C  0.87084020  0.26303042  0.81291684    -0.23500
C1301       C  0.85151711  0.23167941  0.80252286     0.19500
C1302       C  0.82841049  0.21324669  0.81535552     0.24500
C1303       C  0.82456774  0.22458223  0.83913736    -0.23500
C1304       C  0.84315102  0.25737521  0.84934728     0.19400
F1305       F  0.83973683  0.26958624  0.87216806    -0.13400
F1306       F  0.88386155  0.30807432  0.84635700    -0.15800
F1307       F  0.81133050  0.18128948  0.80491534    -0.15800
F1308       F  0.85611336  0.21646890  0.78028255    -0.13400
C1309       C  0.85684323  0.29219804  0.99263453     0.24600
C1310       C  0.82798574  0.28041318  0.99936684    -0.23500
C1311       C  0.82379516  0.25934164  0.68839000     0.19500
C1312       C  0.84768131  0.25189549  0.70372753     0.24500
C1313       C  0.87585277  0.26880672  0.69808313    -0.23500
C1314       C  0.87986257  0.29008820  0.00883301     0.19400
F1315       F  0.90581312  0.30986124  0.00298722    -0.13400
F1316       F  0.86235957  0.31051939  0.97109439    -0.15800
F1317       F  0.84289101  0.23089087  0.72475503    -0.15800
F1318       F  0.79627003  0.24758254  0.69535685    -0.13400
C1319       C  0.04387678  0.45245695  0.99260933     0.24600
C1320       C  0.07267878  0.46475493  0.99920619    -0.23500
C1321       C  0.07663528  0.48787593  0.68749423     0.19500
C1322       C  0.05301928  0.49384208  0.70309937     0.24500
C1323       C  0.02536348  0.47442778  0.69813032    -0.23500
C1324       C  0.02049921  0.45607173  0.67573893     0.19400
F1325       F  0.99444200  0.43643369  0.67018438    -0.13400
F1326       F  0.03841193  0.43353040  0.97133921    -0.15800
F1327       F  0.05771435  0.51554605  0.72378728    -0.15800
F1328       F  0.10399826  0.50145424  0.69387593    -0.13400
C1329       C  0.84520724  0.47719225  0.03680766     0.24600
C1330       C  0.87382158  0.45764630  0.70179112    -0.23500
C1331       C  0.88106992  0.43271736  0.68136531     0.19500
C1332       C  0.85981296  0.42512682  0.66413354     0.24500
C1333       C  0.83039728  0.43916044  0.00067120    -0.23500
C1334       C  0.82347589  0.46708278  0.02014700     0.19400
F1335       F  0.79553791  0.48390418  0.02327802    -0.13400
F1336       F  0.83805921  0.50530065  0.05501806    -0.15800
F1337       F  0.86790428  0.40062554  0.64488790    -0.15800
F1338       F  0.90855511  0.41380392  0.67848749    -0.13400
C1339       C  0.85552377  0.01974371  0.85634168     0.24600
C1340       C  0.83494246  0.04995245  0.84519949    -0.23500
C1341       C  0.83682823  0.05625193  0.82069808     0.19500
C1342       C  0.85877549  0.03381504  0.80769906     0.24500
C1343       C  0.87900728  0.00285008  0.81855019    -0.23500
C1344       C  0.87711177  0.99577696  0.84304197     0.19400
F1345       F  0.89623618  0.96592214  0.85404235    -0.13400
F1346       F  0.85450761  0.01293097  0.87993173    -0.15800
F1347       F  0.86080324  0.04369977  0.78439781    -0.15800
F1348       F  0.81809302  0.08598697  0.80922560    -0.13400
C1349       C  0.07046302  0.19013243  0.81868816     0.24600
C1350       C  0.07267556  0.19694666  0.84303631    -0.23500
C1351       C  0.05261651  0.22761618  0.85403815     0.19500
C1352       C  0.03061665  0.25093534  0.84079387     0.24500
C1353       C  0.02779645  0.24259860  0.81652960    -0.23500
C1354       C  0.04808135  0.21192819  0.80572476     0.19400
F1355       F  0.04557811  0.20133149  0.78261919    -0.13400
F1356       F  0.08907400  0.16018198  0.80746472    -0.15800
F1357       F  0.01193841  0.28121960  0.85168157    -0.15800
F1358       F  0.05450284  0.23530465  0.87747146    -0.13400
C1359       C  0.06286441  0.99046817  0.84974523     0.24600
C1360       C  0.08297326  0.02061814  0.83899030    -0.23500
C1361       C  0.08054751  0.02925853  0.81471595     0.19500
C1362       C  0.05708816  0.01166583  0.80194272     0.24500
C1363       C  0.03611393  0.98335782  0.81289471    -0.23500
C1364       C  0.03979919  0.97166620  0.83672114     0.19400
F1365       F  0.02040050  0.94337270  0.84753895    -0.13400
F1366       F  0.06498990  0.98026738  0.87300815    -0.15800
F1367       F  0.05391658  0.02481814  0.77910911    -0.15800
F1368       F  0.09944089  0.05794974  0.80358494    -0.13400
O1369       O  0.09489126  0.55916568  0.20737949    -0.73500
O1370       O  0.13542990  0.65469719  0.23984860    -0.73500
O1371       O  0.08827717  0.65183608  0.20985256    -0.73500
O1372       O  0.14235815  0.56132066  0.23673739    -0.73600
O1373       O  0.17280611  0.57079060  0.20634773    -0.73500
O1374       O  0.11873199  0.65904140  0.17936850    -0.73500
O1375       O  0.16533834  0.66396145  0.20917762    -0.73500
O1376       O  0.12536986  0.56699666  0.17697912    -0.73500
Ni1377     Ni  0.11420930  0.60640578  0.22460397     1.25400
Ni1378     Ni  0.14666439  0.61539693  0.19193746     1.25400
C1379       C  0.10255039  0.54894901  0.18639343     0.88700
C1380       C  0.15713828  0.67499136  0.23000610     0.88700
C1381       C  0.09421340  0.66868777  0.18952268     0.88700
C1382       C  0.16683790  0.55237630  0.22619309     0.88900
N1383       N  0.95540283  0.46693158  0.13054671    -0.35600
N1384       N  0.90866963  0.96792317  0.09534211    -0.56200
N1385       N  0.95024051  0.96416922  0.05804468    -0.35600
N1386       N  0.99638151  0.96229508  0.09200965    -0.56200
C1387       C  0.93269188  0.48863153  0.14167155     0.27900
C1388       C  0.98081677  0.48248651  0.13986214     0.27900
C1389       C  0.92520566  0.97819968  0.04708901     0.27900
C1390       C  0.97310289  0.98043890  0.04549424     0.27900
C1391       C  0.89388358  0.46122484  0.11539140     0.36600
C1392       C  0.89087079  0.95440071  0.07771422     0.36600
C1393       C  0.01369090  0.44984479  0.10995383     0.36600
C1394       C  0.01130768  0.95103628  0.07238250     0.36600
C1395       C  0.94380742  0.51803741  0.15851370    -0.20900
C1396       C  0.97424491  0.51401894  0.15742504    -0.20900
C1397       C  0.93200363  0.00410910  0.02730904    -0.20900
C1398       C  0.96243232  0.00605620  0.02645743    -0.20900
C1399       C  0.86671805  0.44198653  0.11080513    -0.22000
C1400       C  0.86506682  0.93671882  0.08689643    -0.22000
C1401       C  0.03939406  0.42835142  0.10195740    -0.28400
C1402       C  0.03776852  0.92857038  0.07810323    -0.22000
C1403       C  0.90242434  0.48158840  0.13676062    -0.17300
C1404       C  0.00949702  0.46863607  0.13240372    -0.17300
C1405       C  0.00294072  0.96828005  0.05008242    -0.17300
C1406       C  0.89687856  0.96382215  0.05375907    -0.17300
H1407       H  0.93140338  0.54065053  0.17011056     0.15600
H1408       H  0.98968911  0.53300049  0.16796398     0.15600
H1409       H  0.91614160  0.02069474  0.34777927     0.15600
H1410       H  0.97466271  0.02544361  0.34618723     0.15600
H1411       H  0.84955624  0.43440599  0.12338994     0.13900
H1412       H  0.84635378  0.92378078  0.07733454     0.13900
H1413       H  0.05819193  0.41671147  0.11236432     0.13900
H1414       H  0.05483052  0.91646176  0.06620834     0.13900
H1415       H  0.95365609  0.44084681  0.11807472     0.27100
H1416       H  0.95153802  0.93954957  0.07153609     0.27100
N1417       N  0.90772644  0.77888833  0.09174189    -0.35600
N1418       N  0.94987078  0.77928862  0.13057377    -0.56200
N1419       N  0.99459536  0.77107490  0.09397717    -0.35600
N1420       N  0.95188551  0.77250920  0.05697767    -0.56200
C1421       C  0.89197954  0.79490033  0.11012907     0.27900
C1422       C  0.89252117  0.79030502  0.07205903     0.27900
C1423       C  0.00918301  0.78268579  0.11365425     0.27900
C1424       C  0.01084779  0.78500928  0.07541788     0.27900
C1425       C  0.92489184  0.76551207  0.14117989     0.36600
C1426       C  0.97258331  0.75881894  0.14236767     0.36600
C1427       C  0.92862206  0.75845925  0.04435459     0.36600
C1428       C  0.97637266  0.75888370  0.04538273     0.36600
C1429       C  0.86688763  0.81843180  0.10211428    -0.20900
C1430       C  0.86741986  0.81609799  0.07793271    -0.20900
C1431       C  0.03486301  0.80515707  0.10772674    -0.20900
C1432       C  0.03567188  0.80741238  0.08349127    -0.20900
C1433       C  0.93167293  0.73672653  0.16011467    -0.22000
C1434       C  0.96203041  0.73224370  0.16078933    -0.22000
C1435       C  0.93836245  0.73464758  0.02467162    -0.22000
C1436       C  0.96882437  0.73545711  0.02517738    -0.22000
C1437       C  0.89632018  0.77810588  0.13314465    -0.17300
C1438       C  0.89927687  0.77208498  0.04968253    -0.17300
C1439       C  0.00479177  0.77311056  0.05181406    -0.17300
C1440       C  0.00241618  0.76434997  0.13596953    -0.17300
H1441       H  0.84917625  0.83300329  0.11266448     0.15600
H1442       H  0.85042662  0.82947415  0.06617317     0.15600
H1443       H  0.05176578  0.81682207  0.11961847     0.15600
H1444       H  0.05323052  0.82195637  0.07310497     0.15600
H1445       H  0.91642656  0.71946620  0.17169437     0.13900
H1446       H  0.97465873  0.71084541  0.17300609     0.13900
H1447       H  0.92458957  0.71785482  0.34401023     0.13900
H1448       H  0.98329493  0.71881308  0.34474828     0.13900
H1449       H  0.92476450  0.75410404  0.09289965     0.27100
H1450       H  0.97699098  0.74841111  0.09345219     0.27100
O1451       O  0.13663826  0.83542226  0.27040283    -0.73500
O1452       O  0.09312946  0.93407831  0.29789296    -0.73500
O1453       O  0.14177885  0.92876098  0.27055911    -0.73500
O1454       O  0.08878785  0.84229296  0.29854242    -0.73600
O1455       O  0.11894217  0.83435403  0.32934139    -0.73500
O1456       O  0.16881949  0.92648202  0.30334743    -0.73500
O1457       O  0.11965764  0.92670369  0.33076776    -0.73500
O1458       O  0.16748189  0.83174923  0.30097340    -0.73500
Ni1459     Ni  0.11431001  0.88531617  0.28312925     1.25400
Ni1460     Ni  0.14506062  0.87971952  0.31716343     1.25400
C1461       C  0.15870506  0.81665995  0.28103653     0.88700
C1462       C  0.09706608  0.94307985  0.31954249     0.88700
C1463       C  0.16348972  0.94295725  0.28282476     0.88700
C1464       C  0.09446594  0.82595595  0.31912987     0.88900
C1465       C  0.67696246  0.71576742  0.26933402     0.87500
C1466       C  0.69513652  0.69113613  0.25059052    -0.52800
C1467       C  0.71388318  0.71840223  0.23852033     0.10400
C1468       C  0.71081339  0.77021481  0.24484270     0.21300
C1469       C  0.69930846  0.74249579  0.28426390    -0.53500
C1470       C  0.71666249  0.77152588  0.27140041     0.10500
C1471       C  0.65981095  0.75354300  0.25600730    -0.53000
C1472       C  0.67728342  0.78254778  0.24322043     0.11100
H1473       H  0.69393006  0.65441959  0.24741339     0.15600
H1474       H  0.72505935  0.79334495  0.23433854     0.01300
H1475       H  0.70072342  0.74106793  0.96959138     0.15900
H1476       H  0.63596383  0.75795817  0.25722710     0.15700
C1477       C  0.72837565  0.54061597  0.24587760     0.87500
C1478       C  0.74569434  0.50199359  0.25823574    -0.52800
C1479       C  0.72861734  0.97296262  0.27146556     0.10400
C1480       C  0.69512033  0.98578186  0.27088625     0.21300
C1481       C  0.70504839  0.51524652  0.23136709    -0.53500
C1482       C  0.68803512  0.98585971  0.24446501     0.10500
C1483       C  0.71135368  0.56475303  0.26558205    -0.53000
C1484       C  0.69281735  0.53721741  0.27792492     0.11100
H1485       H  0.76946584  0.49731004  0.25640356     0.15600
H1486       H  0.68124286  0.96227897  0.28149279     0.01300
H1487       H  0.70335316  0.51799991  0.21237914     0.15900
H1488       H  0.71273764  0.60138388  0.26891062     0.15700
O1489       O  0.61973319  0.57968714  0.33615261    -0.73500
O1490       O  0.66442247  0.67192154  0.30408644    -0.73500
O1491       O  0.61466121  0.67120032  0.33031717    -0.73500
O1492       O  0.67090033  0.57923570  0.30953565    -0.73600
O1493       O  0.64386792  0.56852175  0.27732392    -0.73500
O1494       O  0.58706833  0.66010306  0.29848393    -0.73500
O1495       O  0.63743320  0.66138860  0.27186262    -0.73500
O1496       O  0.59302588  0.56838229  0.30380903    -0.73500
Ni1497     Ni  0.64347872  0.62555158  0.32112131     1.25400
Ni1498     Ni  0.61452531  0.61405693  0.28665072     1.25400
C1499       C  0.59727304  0.56261810  0.32586932     0.88700
C1500       C  0.65823885  0.68192845  0.28266118     0.88700
C1501       C  0.59096040  0.67909339  0.31851164     0.88700
C1502       C  0.66736539  0.56052611  0.28943593     0.88900
O1503       O  0.67431368  0.84160565  0.21315331    -0.73500
O1504       O  0.62941519  0.93972362  0.18283818    -0.73500
O1505       O  0.67605630  0.93632753  0.21297753    -0.73500
O1506       O  0.62783167  0.84764613  0.18269081    -0.73600
O1507       O  0.59561037  0.85166813  0.21218707    -0.73500
O1508       O  0.64579065  0.93727743  0.24385162    -0.73500
O1509       O  0.59898306  0.94384379  0.21353725    -0.73500
O1510       O  0.64162398  0.84335996  0.24241788    -0.73500
Ni1511     Ni  0.65326255  0.89135510  0.19697772     1.25400
Ni1512     Ni  0.61963536  0.89420744  0.22921864     1.25400
C1513       C  0.66420523  0.82488519  0.23237819     0.88700
C1514       C  0.60543794  0.95477377  0.19238528     0.88700
C1515       C  0.66884710  0.95169837  0.23325132     0.88700
C1516       C  0.60283214  0.83744210  0.19164729     0.88900
O1517       O  0.25735939  0.81205292  0.24561782    -0.73500
O1518       O  0.31051132  0.90054093  0.21935852    -0.73500
O1519       O  0.26216351  0.90557629  0.24742630    -0.73500
O1520       O  0.30608097  0.80920289  0.21701036    -0.73600
O1521       O  0.27782403  0.81966611  0.18524132    -0.73500
O1522       O  0.23139783  0.91178863  0.21684793    -0.73500
O1523       O  0.28033741  0.91159767  0.18870969    -0.73500
O1524       O  0.22929712  0.81776118  0.21347747    -0.73500
Ni1525     Ni  0.28479461  0.85644219  0.23361722     1.25400
Ni1526     Ni  0.25343276  0.86537677  0.20005782     1.25400
C1527       C  0.23487323  0.79968621  0.23371299     0.88700
C1528       C  0.30495198  0.91867050  0.19918621     0.88700
C1529       C  0.24010298  0.92521933  0.23697926     0.88700
C1530       C  0.30117400  0.80296665  0.19513354     0.88900
C1531       C  0.22369973  0.53284432  0.27269948     0.87500
C1532       C  0.20814658  0.55663171  0.25212861    -0.52800
C1533       C  0.19081041  0.52897632  0.23926901     0.10400
C1534       C  0.19231553  0.97782411  0.24698597     0.21300
C1535       C  0.19948159  0.50731397  0.28641741    -0.53500
C1536       C  0.18343393  0.97760101  0.27296030     0.10500
C1537       C  0.24220228  0.49423964  0.26171113    -0.53000
C1538       C  0.22581698  0.96542453  0.24809504     0.11100
H1539       H  0.20961612  0.59327794  0.24850130     0.15600
H1540       H  0.17931648  0.95435897  0.23581751     0.01300
H1541       H  0.19692027  0.50942049  0.97206426     0.15900
H1542       H  0.26588532  0.49015781  0.26442563     0.15700
O1543       O  0.31044961  0.58864536  0.30397931    -0.73500
O1544       O  0.25649423  0.68079355  0.27980286    -0.73500
O1545       O  0.30493770  0.68030496  0.30838467    -0.73500
O1546       O  0.26221303  0.58784785  0.27586879    -0.73600
O1547       O  0.23341195  0.57753234  0.30718016    -0.73500
O1548       O  0.27575868  0.67030028  0.33954539    -0.73500
O1549       O  0.22687151  0.67043974  0.31063176    -0.73500
O1550       O  0.28151339  0.57846342  0.33520919    -0.73500
Ni1551     Ni  0.28440606  0.63492079  0.29084434     1.25400
Ni1552     Ni  0.25322905  0.62417529  0.32423844     1.25400
C1553       C  0.30556186  0.56995554  0.32401429     0.88700
C1554       C  0.23224398  0.68914358  0.29062344     0.88700
C1555       C  0.29895236  0.68677501  0.33006708     0.88700
C1556       C  0.24101188  0.56722167  0.28622098     0.88900
C1557       C  0.17459904  0.70936625  0.24407938     0.87500
C1558       C  0.15636639  0.74733239  0.25607971    -0.52800
C1559       C  0.17274940  0.77601997  0.26983344     0.10400
C1560       C  0.20624138  0.76394373  0.27006807     0.21300
C1561       C  0.19829813  0.73599077  0.23028789    -0.53500
C1562       C  0.21450955  0.76520964  0.24379676     0.10500
C1563       C  0.19088266  0.68496479  0.26423041    -0.53000
C1564       C  0.20821069  0.71240116  0.27737781     0.11100
H1565       H  0.13262543  0.75144336  0.25374728     0.15600
H1566       H  0.21950005  0.78714679  0.28118153     0.01300
H1567       H  0.20099196  0.73377299  0.21138372     0.15900
H1568       H  0.18957547  0.64820993  0.26753692     0.15700
N1569       N  0.44893869  0.50592475  0.06047145    -0.35600
N1570       N  0.49359688  0.01423820  0.09561159    -0.56200
N1571       N  0.44940307  0.00887977  0.13307729    -0.35600
N1572       N  0.40417015  0.99956822  0.09688054    -0.56200
C1573       C  0.47315368  0.49947385  0.04683189     0.27900
C1574       C  0.42519395  0.49413401  0.04771480     0.27900
C1575       C  0.47487251  0.99957870  0.14502873     0.27900
C1576       C  0.42680590  0.99198541  0.14597477     0.27900
C1577       C  0.50995168  0.52386492  0.07623288     0.36600
C1578       C  0.50918248  0.02733368  0.11452893     0.36600
C1579       C  0.38668161  0.50851977  0.07803509     0.36600
C1580       C  0.38693086  0.00441487  0.11619373     0.36600
C1581       C  0.46464635  0.48304072  0.02510389    -0.20900
C1582       C  0.43437470  0.47919226  0.02574717    -0.20900
C1583       C  0.46837846  0.97764654  0.16602604    -0.20900
C1584       C  0.43812433  0.97376011  0.16687570    -0.20900
C1585       C  0.53635906  0.54333487  0.08315213    -0.22000
C1586       C  0.53545743  0.04689754  0.10758233    -0.22000
C1587       C  0.35839536  0.52020110  0.08552538    -0.22000
C1588       C  0.35828056  0.01612255  0.10939108    -0.22000
C1589       C  0.50189638  0.51357535  0.05280793    -0.17300
C1590       C  0.39551892  0.50355419  0.05419725    -0.17300
C1591       C  0.39631248  0.99386639  0.13949877    -0.17300
C1592       C  0.50362953  0.01136687  0.13747323    -0.17300
H1593       H  0.47754609  0.47407017  0.34330771     0.15600
H1594       H  0.41951940  0.46702547  0.34472314     0.15600
H1595       H  0.48372590  0.96587078  0.17948762     0.15600
H1596       H  0.42607841  0.95897766  0.18138793     0.15600
H1597       H  0.55497018  0.55295058  0.07244945     0.13900
H1598       H  0.55316134  0.05850098  0.11873907     0.13900
H1599       H  0.33936180  0.52981791  0.07494557     0.13900
H1600       H  0.33897605  0.02099903  0.12025392     0.13900
H1601       H  0.44791766  0.52471168  0.07593810     0.27100
H1602       H  0.44739872  0.02833547  0.11776935     0.27100
N1603       N  0.45035754  0.73808375  0.05977033    -0.35600
N1604       N  0.49759515  0.75040088  0.09282148    -0.56200
N1605       N  0.45567493  0.75287283  0.13179429    -0.35600
N1606       N  0.40899655  0.74154858  0.09741578    -0.56200
C1607       C  0.47308618  0.74776984  0.04536338     0.27900
C1608       C  0.42505340  0.74564044  0.04756476     0.27900
C1609       C  0.47939912  0.77395572  0.14091160     0.27900
C1610       C  0.43152689  0.76839715  0.14352094     0.27900
C1611       C  0.51266542  0.73276971  0.07430707     0.36600
C1612       C  0.51507864  0.74427584  0.11190439     0.36600
C1613       C  0.39085332  0.72799672  0.08008826     0.36600
C1614       C  0.39477431  0.73331814  0.11776072     0.36600
C1615       C  0.46215740  0.76263979  0.02376613    -0.20900
C1616       C  0.43181572  0.76041288  0.02500119    -0.20900
C1617       C  0.47016306  0.80345075  0.15873448    -0.20900
C1618       C  0.43984970  0.79961114  0.16050237    -0.20900
C1619       C  0.53957950  0.71410232  0.08182422    -0.22000
C1620       C  0.54121269  0.72180434  0.10563421    -0.22000
C1621       C  0.36486382  0.71134296  0.08961970    -0.22000
C1622       C  0.36771572  0.71360300  0.11345014    -0.22000
C1623       C  0.50305733  0.73741521  0.05063734    -0.17300
C1624       C  0.39670078  0.73420582  0.05586554    -0.17300
C1625       C  0.40249061  0.75392488  0.13911590    -0.17300
C1626       C  0.50898512  0.76462408  0.13396431    -0.17300
H1627       H  0.47437453  0.77242783  0.34151934     0.15600
H1628       H  0.41636785  0.76829704  0.34368756     0.15600
H1629       H  0.48375511  0.82544755  0.16935549     0.15600
H1630       H  0.42558981  0.81794039  0.17269719     0.15600
H1631       H  0.55654784  0.69761160  0.07123220     0.13900
H1632       H  0.55973763  0.71292244  0.11695729     0.13900
H1633       H  0.34518133  0.70049156  0.08064873     0.13900
H1634       H  0.35077087  0.70532492  0.12611497     0.13900
H1635       H  0.45228430  0.72033193  0.07570139     0.27100
H1636       H  0.45620875  0.72632946  0.11948700     0.27100
O1637       O  0.78744864  0.58641491  0.18157722    -0.73500
O1638       O  0.73318013  0.67652075  0.20629725    -0.73500
O1639       O  0.78140828  0.67825376  0.17774300    -0.73500
O1640       O  0.73978808  0.58395225  0.21064830    -0.73600
O1641       O  0.76902285  0.59286052  0.24174091    -0.73500
O1642       O  0.81113265  0.68664226  0.20858546    -0.73500
O1643       O  0.76268744  0.68585668  0.23723918    -0.73500
O1644       O  0.81746573  0.59395660  0.21227000    -0.73500
Ni1645     Ni  0.75943023  0.63101958  0.19303823     1.25400
Ni1646     Ni  0.79112256  0.64013485  0.22613666     1.25400
C1647       C  0.81200347  0.57712018  0.19192840     0.88700
C1648       C  0.73846480  0.69488661  0.22615222     0.88700
C1649       C  0.80404528  0.69619782  0.18730307     0.88700
C1650       C  0.74700896  0.57368658  0.23186748     0.88900
O1651       O  0.73131101  0.81980819  0.30282292    -0.73500
O1652       O  0.78188329  0.90943277  0.33004428    -0.73500
O1653       O  0.73317035  0.91450735  0.30171439    -0.73500
O1654       O  0.78042688  0.81718490  0.33075005    -0.73600
O1655       O  0.80709848  0.81138239  0.29800103    -0.73500
O1656       O  0.76416511  0.91266660  0.27129218    -0.73500
O1657       O  0.81217123  0.90285894  0.29937151    -0.73500
O1658       O  0.75864610  0.81963237  0.27025713    -0.73500
Ni1659     Ni  0.75535840  0.86524547  0.31737391     1.25400
Ni1660     Ni  0.78628493  0.86151553  0.28349865     1.25400
C1661       C  0.73664375  0.80500596  0.28208446     0.88700
C1662       C  0.80658440  0.91779515  0.32008867     0.88700
C1663       C  0.74213445  0.93095747  0.28205126     0.88700
C1664       C  0.80316031  0.80154444  0.31964999     0.88900
C1665       C  0.35842713  0.75898903  0.35779415     0.24600
C1666       C  0.37290769  0.72341612  0.03891487    -0.23500
C1667       C  0.36205935  0.67834760  0.03896768     0.19500
C1668       C  0.33590138  0.66901105  0.02749189     0.24500
C1669       C  0.32235433  0.70317991  0.34543340    -0.23500
C1670       C  0.33428309  0.74747132  0.34359555     0.19400
F1671       F  0.32201410  0.77961345  0.32883046    -0.13400
F1672       F  0.36775037  0.80331461  0.35798474    -0.15800
F1673       F  0.32368002  0.62708829  0.03088398    -0.15800
F1674       F  0.37569213  0.64409137  0.05171458    -0.13400
C1675       C  0.35827288  0.56148330  0.33500879     0.24600
C1676       C  0.32964442  0.54362173  0.33584340    -0.23500
C1677       C  0.32370487  0.50727155  0.35158143     0.19500
C1678       C  0.34660727  0.49052623  0.03353103     0.24500
C1679       C  0.37374580  0.51337589  0.03490365    -0.23500
C1680       C  0.37979563  0.54822215  0.01827232     0.19400
F1681       F  0.40555207  0.57142544  0.01904981    -0.13400
F1682       F  0.36478532  0.59679249  0.32012220    -0.15800
F1683       F  0.34077551  0.45475481  0.04829604    -0.15800
F1684       F  0.29641056  0.48877404  0.35240256    -0.13400
C1685       C  0.32758629  0.98797294  0.17890047     0.24600
C1686       C  0.32914397  0.94148842  0.18635002    -0.23500
C1687       C  0.35373799  0.91409927  0.17986199     0.19500
C1688       C  0.37466740  0.93084570  0.16417691     0.24500
C1689       C  0.37364735  0.97737274  0.15674700    -0.23500
C1690       C  0.35044951  0.00639164  0.16510334     0.19400
F1691       F  0.34957036  0.05215593  0.15946269    -0.13400
F1692       F  0.30429942  0.01549851  0.18522094    -0.15800
F1693       F  0.39592012  0.90123459  0.15602307    -0.15800
F1694       F  0.35708117  0.87026017  0.18821786    -0.13400
C1695       C  0.32899505  0.80394601  0.15779262     0.24600
C1696       C  0.32515016  0.78410022  0.18025111    -0.23500
C1697       C  0.34788202  0.75550462  0.18972400     0.19500
C1698       C  0.37383672  0.74680064  0.17688109     0.24500
C1699       C  0.37765670  0.76763091  0.15476136    -0.23500
C1700       C  0.35524167  0.79691059  0.14560948     0.19400
F1701       F  0.35872551  0.81832363  0.12448806    -0.13400
F1702       F  0.30843508  0.83357332  0.14832440    -0.15800
F1703       F  0.39504826  0.71784014  0.18587823    -0.15800
F1704       F  0.34505551  0.73643539  0.21144798    -0.13400
C1705       C  0.56040029  0.00688663  0.18737857     0.24600
C1706       C  0.58246485  0.97771714  0.17763271    -0.23500
C1707       C  0.57863047  0.96138530  0.15468940     0.19500
C1708       C  0.55242895  0.97035689  0.14259575     0.24500
C1709       C  0.53021497  0.99942396  0.15215546    -0.23500
C1710       C  0.53474945  0.01857238  0.17448280     0.19400
F1711       F  0.51422657  0.04788202  0.18389485    -0.13400
F1712       F  0.56353003  0.02350313  0.20944905    -0.15800
F1713       F  0.54864057  0.95011007  0.12137640    -0.15800
F1714       F  0.59940950  0.93375308  0.14441984    -0.13400
C1715       C  0.58102081  0.81931998  0.15254229     0.24600
C1716       C  0.58097324  0.81291950  0.17708397    -0.23500
C1717       C  0.55787551  0.78797562  0.18734525     0.19500
C1718       C  0.53517117  0.77046197  0.17336655     0.24500
C1719       C  0.53422992  0.77971558  0.14899524    -0.23500
C1720       C  0.55748547  0.80455990  0.13886947     0.19400
F1721       F  0.55698614  0.81625817  0.11572155    -0.13400
F1722       F  0.60314447  0.84211155  0.14170820    -0.15800
F1723       F  0.51388165  0.74503802  0.18374459    -0.15800
F1724       F  0.55723477  0.78056319  0.21091110    -0.13400
C1725       C  0.51756645  0.69941673  0.01237691     0.24600
C1726       C  0.52441763  0.72963900  0.03085075    -0.23500
C1727       C  0.55213974  0.75085421  0.03069387     0.19500
C1728       C  0.57284125  0.73817421  0.34728154     0.24500
C1729       C  0.56651347  0.70519683  0.33003649    -0.23500
C1730       C  0.53763158  0.68827078  0.32862809     0.19400
F1731       F  0.53073079  0.65580886  0.31251692    -0.13400
F1732       F  0.49146768  0.67710763  0.01208040    -0.15800
F1733       F  0.60041180  0.75539123  0.34907599    -0.15800
F1734       F  0.55900745  0.78230283  0.04731387    -0.13400
C1735       C  0.55844542  0.58018555  0.02019134     0.24600
C1736       C  0.57266478  0.54617333  0.34040203    -0.23500
C1737       C  0.56215878  0.50078129  0.33991779     0.19500
C1738       C  0.53796552  0.48872785  0.35414548     0.24500
C1739       C  0.52354912  0.52423181  0.03393682    -0.23500
C1740       C  0.53238132  0.57017736  0.03169337     0.19400
F1741       F  0.51770243  0.60458566  0.04327583    -0.13400
F1742       F  0.56986749  0.62257739  0.02307460    -0.15800
F1743       F  0.53022409  0.44372114  0.35589248    -0.15800
F1744       F  0.57628435  0.46793657  0.32695059    -0.13400
C1745       C  0.05644977  0.76206589  0.03556680     0.24600
C1746       C  0.02740452  0.77989460  0.03311803    -0.23500
C1747       C  0.02013144  0.80641996  0.01302257     0.19500
C1748       C  0.04141558  0.81522277  0.32886715     0.24500
C1749       C  0.07118728  0.80215404  0.33258751    -0.23500
C1750       C  0.07840893  0.77348095  0.35199661     0.19400
F1751       F  0.10682175  0.75959676  0.35604844    -0.13400
F1752       F  0.06386275  0.73427798  0.05409943    -0.15800
F1753       F  0.03329110  0.84211182  0.31022661    -0.15800
F1754       F  0.99254772  0.82510038  0.01019850    -0.13400
C1755       C  0.86522875  0.77681061  0.16978292     0.24600
C1756       C  0.87001291  0.76309730  0.14646496    -0.23500
C1757       C  0.85074955  0.73161767  0.13611474     0.19500
C1758       C  0.82774953  0.71301347  0.14900969     0.24500
C1759       C  0.82400644  0.72424857  0.17281794    -0.23500
C1760       C  0.84258909  0.75706008  0.18300369     0.19400
F1761       F  0.83932668  0.76907643  0.20586529    -0.13400
F1762       F  0.88319731  0.80791551  0.17994312    -0.15800
F1763       F  0.81067592  0.68101926  0.13859588    -0.15800
F1764       F  0.85533406  0.71642738  0.11386895    -0.13400
C1765       C  0.85694969  0.79114325  0.32596169     0.24600
C1766       C  0.82803209  0.77986787  0.33278922    -0.23500
C1767       C  0.82373038  0.75896333  0.02160257     0.19500
C1768       C  0.84759190  0.75225034  0.03704954     0.24500
C1769       C  0.87557500  0.77001206  0.03151147    -0.23500
C1770       C  0.88009783  0.78819689  0.34202852     0.19400
F1771       F  0.90624907  0.80722815  0.33608819    -0.13400
F1772       F  0.86245590  0.80976178  0.30448408    -0.15800
F1773       F  0.84294654  0.73103534  0.05804463    -0.15800
F1774       F  0.79630034  0.74649093  0.02846376    -0.13400
C1775       C  0.04340025  0.95339409  0.32590228     0.24600
C1776       C  0.07235330  0.96500337  0.33242972    -0.23500
C1777       C  0.07703472  0.98659558  0.02096353     0.19500
C1778       C  0.05331040  0.99269251  0.03644092     0.24500
C1779       C  0.02573972  0.97302977  0.03144707    -0.23500
C1780       C  0.02107038  0.95414042  0.00915380     0.19400
F1781       F  0.99515659  0.93398941  0.00365954    -0.13400
F1782       F  0.03770118  0.93418185  0.30473783    -0.15800
F1783       F  0.05782237  0.01473518  0.05706190    -0.15800
F1784       F  0.10435188  0.00019707  0.02745172    -0.13400
C1785       C  0.84511250  0.97786351  0.37002115     0.24600
C1786       C  0.87411284  0.95770391  0.03507038    -0.23500
C1787       C  0.88134375  0.93189990  0.01492547     0.19500
C1788       C  0.86016237  0.92406708  0.99767350     0.24500
C1789       C  0.83023520  0.93940144  0.33402153    -0.23500
C1790       C  0.82335224  0.96757405  0.35341151     0.19400
F1791       F  0.79541269  0.98440941  0.35652434    -0.13400
F1792       F  0.83795359  0.00595306  0.38823656    -0.15800
F1793       F  0.86826336  0.89898577  0.97862973    -0.15800
F1794       F  0.90873718  0.91246898  0.01234283    -0.13400
C1795       C  0.85573489  0.52018263  0.18962645     0.24600
C1796       C  0.83484857  0.55019447  0.17869401    -0.23500
C1797       C  0.83650822  0.55680111  0.15419705     0.19500
C1798       C  0.85846919  0.53483475  0.14100300     0.24500
C1799       C  0.87894462  0.50395453  0.15162774    -0.23500
C1800       C  0.87729379  0.49657608  0.17611647     0.19400
F1801       F  0.89660585  0.46672069  0.18691074    -0.13400
F1802       F  0.85505455  0.51320160  0.21321255    -0.15800
F1803       F  0.86023488  0.54506766  0.11772472    -0.15800
F1804       F  0.81750849  0.58638859  0.14290789    -0.13400
C1805       C  0.06985887  0.69087513  0.15194588     0.24600
C1806       C  0.07188077  0.69655756  0.17638762    -0.23500
C1807       C  0.05151561  0.72633339  0.18766727     0.19500
C1808       C  0.02950156  0.75002568  0.17460507     0.24500
C1809       C  0.02691762  0.74289662  0.15021557    -0.23500
C1810       C  0.04743411  0.71296793  0.13914730     0.19400
F1811       F  0.04513726  0.70336955  0.11591143    -0.13400
F1812       F  0.08870991  0.66175014  0.14042748    -0.15800
F1813       F  0.01057799  0.77947953  0.18580118    -0.15800
F1814       F  0.05309405  0.73277940  0.21121804    -0.13400
C1815       C  0.06283565  0.48965934  0.18267166     0.24600
C1816       C  0.08284645  0.52015927  0.17205259    -0.23500
C1817       C  0.08035830  0.52921848  0.14781360     0.19500
C1818       C  0.05690461  0.51178550  0.13497589     0.24500
C1819       C  0.03600204  0.48320172  0.14580439    -0.23500
C1820       C  0.03977812  0.47098957  0.16956121     0.19400
F1821       F  0.02047603  0.44231276  0.18022442    -0.13400
F1822       F  0.06506704  0.47894922  0.20587130    -0.15800
F1823       F  0.05364961  0.52536204  0.11221058    -0.15800
F1824       F  0.09917441  0.55819813  0.13679506    -0.13400
O1825       O  0.09433859  0.55990997  0.54074735    -0.73500
O1826       O  0.13477551  0.65541630  0.57321731    -0.73500
O1827       O  0.08795271  0.65264787  0.54294540    -0.73500
O1828       O  0.14159839  0.56203441  0.57026178    -0.73600
O1829       O  0.17220303  0.57096032  0.53992045    -0.73500
O1830       O  0.11875153  0.65947793  0.51264026    -0.73500
O1831       O  0.16502680  0.66417338  0.54271681    -0.73500
O1832       O  0.12498167  0.56738105  0.51042927    -0.73500
Ni1833     Ni  0.11362130  0.60716762  0.55793857     1.25400
Ni1834     Ni  0.14635382  0.61568981  0.52540152     1.25400
C1835       C  0.10209921  0.54946112  0.51982042     0.88700
C1836       C  0.15662408  0.67546633  0.56346795     0.88700
C1837       C  0.09417792  0.66932434  0.52263381     0.88700
C1838       C  0.16608051  0.55278873  0.55977655     0.88900
N1839       N  0.95518520  0.46707638  0.46368453    -0.35600
N1840       N  0.90852023  0.96840117  0.42832077    -0.56200
N1841       N  0.94998298  0.96578908  0.39107161    -0.35600
N1842       N  0.99621798  0.96433174  0.42509135    -0.56200
C1843       C  0.93235055  0.48839548  0.47481127     0.27900
C1844       C  0.98049525  0.48278035  0.47310025     0.27900
C1845       C  0.92487825  0.97943983  0.38009182     0.27900
C1846       C  0.97276937  0.98251174  0.37859393     0.27900
C1847       C  0.89381324  0.46080690  0.44833973     0.36600
C1848       C  0.89072097  0.95491176  0.41068580     0.36600
C1849       C  0.01334341  0.45077602  0.44308900     0.36600
C1850       C  0.01102525  0.95305902  0.40540876     0.36600
C1851       C  0.94326729  0.51773766  0.49177017    -0.20900
C1852       C  0.97373231  0.51407843  0.49073246    -0.20900
C1853       C  0.93155249  0.00559318  0.36036800    -0.20900
C1854       C  0.96197148  0.00810314  0.35959019    -0.20900
C1855       C  0.86674391  0.44135242  0.44364368    -0.22000
C1856       C  0.86501795  0.93687260  0.41986167    -0.22000
C1857       C  0.03880952  0.42865681  0.43505044    -0.28400
C1858       C  0.03727746  0.92986592  0.41102419    -0.22000
C1859       C  0.90216140  0.48102732  0.46978056    -0.17300
C1860       C  0.00921488  0.46916739  0.46563504    -0.17300
C1861       C  0.00264989  0.97049729  0.38314066    -0.17300
C1862       C  0.89662354  0.96466103  0.38674768    -0.17300
H1863       H  0.93071159  0.54005828  0.50341151     0.15600
H1864       H  0.98905310  0.53312977  0.50135216     0.15600
H1865       H  0.91612306  0.02026365  0.68226432     0.15600
H1866       H  0.97462737  0.02507633  0.68055342     0.15600
H1867       H  0.84961866  0.43332272  0.45618493     0.13900
H1868       H  0.84632090  0.92388878  0.41029656     0.13900
H1869       H  0.05741842  0.41623418  0.44545207     0.13900
H1870       H  0.05418393  0.91746264  0.39906729     0.13900
H1871       H  0.95358970  0.44112913  0.45112567     0.27100
H1872       H  0.95143352  0.94107025  0.40451259     0.27100
N1873       N  0.90812278  0.77792568  0.42462144    -0.35600
N1874       N  0.95044977  0.77879291  0.46317583    -0.56200
N1875       N  0.99500660  0.76975816  0.42644811    -0.35600
N1876       N  0.95206523  0.77080705  0.38967546    -0.56200
C1877       C  0.89252070  0.79417733  0.44303223     0.27900
C1878       C  0.89288888  0.78947462  0.40497182     0.27900
C1879       C  0.00972344  0.78188629  0.44597162     0.27900
C1880       C  0.01112561  0.78329365  0.40774121     0.27900
C1881       C  0.92558337  0.76544454  0.47410024     0.36600
C1882       C  0.97328978  0.75899359  0.47507760     0.36600
C1883       C  0.92864903  0.75691712  0.37719941     0.36600
C1884       C  0.97640218  0.75673876  0.37801941     0.36600
C1885       C  0.86748615  0.81791235  0.43507615    -0.20900
C1886       C  0.86793315  0.81557876  0.41089523    -0.20900
C1887       C  0.03536816  0.80419564  0.43980164    -0.20900
C1888       C  0.03598226  0.80596817  0.41556323    -0.20900
C1889       C  0.93256578  0.73767900  0.49337071    -0.22000
C1890       C  0.96294390  0.73337082  0.49392714    -0.22000
C1891       C  0.93812672  0.73273920  0.35755151    -0.22000
C1892       C  0.96860411  0.73314582  0.35792812    -0.22000
C1893       C  0.89694544  0.77758220  0.46606424    -0.17300
C1894       C  0.89943205  0.77106376  0.38259791    -0.17300
C1895       C  0.00489465  0.77090625  0.38424095    -0.17300
C1896       C  0.00305211  0.76434326  0.46844855    -0.17300
H1897       H  0.84989222  0.83271267  0.44566876     0.15600
H1898       H  0.85095447  0.82912831  0.39917158     0.15600
H1899       H  0.05231963  0.81622915  0.45154816     0.15600
H1900       H  0.05341303  0.82046757  0.40502231     0.15600
H1901       H  0.91743861  0.72106237  0.50529444     0.13900
H1902       H  0.97572888  0.71276747  0.50638570     0.13900
H1903       H  0.92502694  0.71729944  0.67748702     0.13900
H1904       H  0.98370780  0.71922743  0.67828221     0.13900
H1905       H  0.92506676  0.75297320  0.42575895     0.27100
H1906       H  0.97738443  0.74711428  0.42614493     0.27100
O1907       O  0.13605197  0.83616620  0.60386458    -0.73500
O1908       O  0.09288229  0.93515591  0.63140678    -0.73500
O1909       O  0.14145234  0.92949230  0.60404938    -0.73500
O1910       O  0.08825414  0.84335816  0.63205322    -0.73600
O1911       O  0.11849506  0.83513431  0.66278525    -0.73500
O1912       O  0.16850632  0.92712758  0.63683150    -0.73500
O1913       O  0.11939310  0.92751312  0.66427982    -0.73500
O1914       O  0.16697593  0.83240808  0.63438255    -0.73500
Ni1915     Ni  0.11388298  0.88622991  0.61662294     1.25400
Ni1916     Ni  0.14467754  0.88043602  0.65062536     1.25400
C1917       C  0.15811659  0.81732157  0.61446807     0.88700
C1918       C  0.09683921  0.94404749  0.65306605     0.88700
C1919       C  0.16318200  0.94362283  0.61631516     0.88700
C1920       C  0.09398608  0.82683991  0.65259668     0.88900
C1921       C  0.67756791  0.71576781  0.60249731     0.87500
C1922       C  0.69570823  0.69125747  0.58370515    -0.52800
C1923       C  0.71437218  0.71859294  0.57160122     0.10400
C1924       C  0.71129490  0.77039605  0.57796507     0.21300
C1925       C  0.69993238  0.74255134  0.61740276    -0.53500
C1926       C  0.71723294  0.77169619  0.60453072     0.10500
C1927       C  0.66034672  0.75351802  0.58921320    -0.53000
C1928       C  0.67773379  0.78258179  0.57638268     0.11100
H1929       H  0.69447875  0.65457326  0.58046261     0.15600
H1930       H  0.72548308  0.79358547  0.56744482     0.01300
H1931       H  0.70047113  0.74021086  0.30328652     0.15900
H1932       H  0.63649189  0.75779923  0.59044224     0.15700
C1933       C  0.72855514  0.54033820  0.57860000     0.87500
C1934       C  0.74595636  0.50171299  0.59092037    -0.52800
C1935       C  0.72901062  0.97287712  0.60412670     0.10400
C1936       C  0.69549249  0.98546012  0.60354397     0.21300
C1937       C  0.70515824  0.51491635  0.56417441    -0.53500
C1938       C  0.68833071  0.98546367  0.57713216     0.10500
C1939       C  0.71163723  0.56444972  0.59835408    -0.53000
C1940       C  0.69319547  0.53691057  0.61076557     0.11100
H1941       H  0.76972808  0.49709854  0.58906320     0.15600
H1942       H  0.68168705  0.96191865  0.61418997     0.01300
H1943       H  0.70333961  0.51768910  0.54519437     0.15900
H1944       H  0.71303656  0.60106799  0.60169200     0.15700
O1945       O  0.62033297  0.57902532  0.66905658    -0.73500
O1946       O  0.66504298  0.67158612  0.63718772    -0.73500
O1947       O  0.61527070  0.67064047  0.66340712    -0.73500
O1948       O  0.67143679  0.57880606  0.64243527    -0.73600
O1949       O  0.64432193  0.56830400  0.61024269    -0.73500
O1950       O  0.58770495  0.65991882  0.63152183    -0.73500
O1951       O  0.63806810  0.66125762  0.60493934    -0.73500
O1952       O  0.59350994  0.56813450  0.63673545    -0.73500
Ni1953     Ni  0.64407020  0.62504441  0.65411993     1.25400
Ni1954     Ni  0.61507973  0.61386850  0.61963888     1.25400
C1955       C  0.59780154  0.56215489  0.65878078     0.88700
C1956       C  0.65886415  0.68176395  0.61577979     0.88700
C1957       C  0.59160374  0.67873532  0.65158524     0.88700
C1958       C  0.66782121  0.56019477  0.62232665     0.88900
O1959       O  0.67434939  0.84126294  0.54610873    -0.73500
O1960       O  0.62891678  0.93897864  0.51590818    -0.73500
O1961       O  0.67594607  0.93597624  0.54571111    -0.73500
O1962       O  0.62752724  0.84690543  0.51590319    -0.73600
O1963       O  0.59555940  0.85099739  0.54556537    -0.73500
O1964       O  0.64599340  0.93700268  0.57677484    -0.73500
O1965       O  0.59877888  0.94318504  0.54678885    -0.73500
O1966       O  0.64191864  0.84311181  0.57555195    -0.73500
Ni1967     Ni  0.65303030  0.89081069  0.52996039     1.25400
Ni1968     Ni  0.61971024  0.89374631  0.56239641     1.25400
C1969       C  0.66447270  0.82470307  0.56545192     0.88700
C1970       C  0.60496501  0.95388464  0.52555966     0.88700
C1971       C  0.66896172  0.95138195  0.56602306     0.88700
C1972       C  0.60259013  0.83674524  0.52498377     0.88900
O1973       O  0.25665422  0.81232644  0.57896817    -0.73500
O1974       O  0.30979062  0.90060838  0.55273917    -0.73500
O1975       O  0.26157899  0.90577001  0.58084670    -0.73500
O1976       O  0.30521615  0.80931668  0.55026484    -0.73600
O1977       O  0.27682968  0.81989589  0.51857650    -0.73500
O1978       O  0.23077122  0.91221311  0.55029792    -0.73500
O1979       O  0.27958309  0.91178155  0.52211092    -0.73500
O1980       O  0.22845145  0.81825890  0.54690331    -0.73500
Ni1981     Ni  0.28407845  0.85658943  0.56696658     1.25400
Ni1982     Ni  0.25262177  0.86572132  0.53346048     1.25400
C1983       C  0.23411449  0.80011690  0.56710459     0.88700
C1984       C  0.30420406  0.91876373  0.53258772     0.88700
C1985       C  0.23957070  0.92557675  0.57041212     0.88700
C1986       C  0.30019168  0.80309593  0.52840118     0.88900
C1987       C  0.22316749  0.53351230  0.60611101     0.87500
C1988       C  0.20734770  0.55725457  0.58567937    -0.52800
C1989       C  0.18996768  0.52951927  0.57293260     0.10400
C1990       C  0.19193979  0.97826214  0.58045235     0.21300
C1991       C  0.19916889  0.50775478  0.61997858    -0.53500
C1992       C  0.18315230  0.97817656  0.60642935     0.10500
C1993       C  0.24165859  0.49506199  0.59496652    -0.53000
C1994       C  0.22542369  0.96587228  0.58150715     0.11100
H1995       H  0.20876562  0.59388485  0.58199930     0.15600
H1996       H  0.17889743  0.95475312  0.56933916     0.01300
H1997       H  0.19632076  0.51020291  0.30525392     0.15900
H1998       H  0.26537222  0.49107731  0.59753621     0.15700
O1999       O  0.31002056  0.58899615  0.63674892    -0.73500
O2000       O  0.25606069  0.68170521  0.61305367    -0.73500
O2001       O  0.30488152  0.68071847  0.64136140    -0.73500
O2002       O  0.26155099  0.58874911  0.60897787    -0.73600
O2003       O  0.23310543  0.57831542  0.64048690    -0.73500
O2004       O  0.27592822  0.67082640  0.67265955    -0.73500
O2005       O  0.22668971  0.67122331  0.64402030    -0.73500
O2006       O  0.28142476  0.57893015  0.66818542    -0.73500
Ni2007     Ni  0.28400115  0.63559614  0.62386592     1.25400
Ni2008     Ni  0.25314008  0.62484581  0.65744135     1.25400
C2009       C  0.30528118  0.57018055  0.65678093     0.88700
C2010       C  0.23186837  0.68995326  0.62398387     0.88700
C2011       C  0.29911919  0.68713161  0.66309073     0.88700
C2012       C  0.24051403  0.56801686  0.61948746     0.88900
C2013       C  0.17399173  0.70987978  0.57756900     0.87500
C2014       C  0.15572813  0.74788111  0.58954064    -0.52800
C2015       C  0.17211156  0.77662915  0.60326643     0.10400
C2016       C  0.20560590  0.76459104  0.60348683     0.21300
C2017       C  0.19763392  0.73646750  0.56374222    -0.53500
C2018       C  0.21381073  0.76573386  0.57721619     0.10500
C2019       C  0.19031023  0.68558348  0.59775200    -0.53000
C2020       C  0.20766273  0.71309764  0.61084908     0.11100
H2021       H  0.13198608  0.75197166  0.58721121     0.15600
H2022       H  0.21886635  0.78787729  0.61455342     0.01300
H2023       H  0.20032179  0.73419706  0.54483814     0.15900
H2024       H  0.18903537  0.64884779  0.60110268     0.15700
N2025       N  0.44820699  0.50439696  0.39374218    -0.35600
N2026       N  0.49280441  0.01180795  0.42876474    -0.56200
N2027       N  0.44861951  0.00702605  0.46627442    -0.35600
N2028       N  0.40330715  0.99824437  0.43014707    -0.56200
C2029       C  0.47235070  0.49772333  0.38006057     0.27900
C2030       C  0.42438820  0.49264477  0.38107541     0.27900
C2031       C  0.47401320  0.99740587  0.47821712     0.27900
C2032       C  0.42593550  0.99052378  0.47917152     0.27900
C2033       C  0.50932731  0.52144964  0.40942640     0.36600
C2034       C  0.50858529  0.02434918  0.44768475     0.36600
C2035       C  0.38608901  0.50840693  0.41136307     0.36600
C2036       C  0.38620746  0.00403637  0.44946673     0.36600
C2037       C  0.46374274  0.48108666  0.35840094    -0.20900
C2038       C  0.43345670  0.47734492  0.35913843    -0.20900
C2039       C  0.46740660  0.97563718  0.49923983    -0.20900
C2040       C  0.43713346  0.97213111  0.50008020    -0.20900
C2041       C  0.53592606  0.54025798  0.41634995    -0.22000
C2042       C  0.53506676  0.04324454  0.44073800    -0.22000
C2043       C  0.35806178  0.52163583  0.41886549    -0.22000
C2044       C  0.35778510  0.01721034  0.44271693    -0.22000
C2045       C  0.50110683  0.51180857  0.38597141    -0.17300
C2046       C  0.39480773  0.50281788  0.38754254    -0.17300
C2047       C  0.39547097  0.99306175  0.47272963    -0.17300
C2048       C  0.50281676  0.00877461  0.47067148    -0.17300
H2049       H  0.47775204  0.47567064  0.67627456     0.15600
H2050       H  0.41978149  0.46796691  0.67757525     0.15600
H2051       H  0.48270359  0.96375733  0.51271623     0.15600
H2052       H  0.42498740  0.95757502  0.51459852     0.15600
H2053       H  0.55455816  0.54968557  0.40562160     0.13900
H2054       H  0.55291057  0.05437669  0.45188414     0.13900
H2055       H  0.33923116  0.53225487  0.40828119     0.13900
H2056       H  0.33863543  0.02317628  0.45362538     0.13900
H2057       H  0.44728786  0.52344015  0.40913747     0.27100
H2058       H  0.44672548  0.02658261  0.45090440     0.27100
N2059       N  0.44975618  0.73950870  0.39302289    -0.35600
N2060       N  0.49689497  0.75141276  0.42616388    -0.56200
N2061       N  0.45478211  0.75360152  0.46509116    -0.35600
N2062       N  0.40820297  0.74277387  0.43056754    -0.56200
C2063       C  0.47254003  0.74888545  0.37862103     0.27900
C2064       C  0.42451381  0.74696490  0.38073247     0.27900
C2065       C  0.47851509  0.77445558  0.47434963     0.27900
C2066       C  0.43060279  0.76902266  0.47682642     0.27900
C2067       C  0.51206348  0.73397647  0.40764408     0.36600
C2068       C  0.51429883  0.74513316  0.44528345     0.36600
C2069       C  0.39011731  0.72944910  0.41315779     0.36600
C2070       C  0.39385608  0.73446412  0.45084408     0.36600
C2071       C  0.46171125  0.76343407  0.35693900    -0.20900
C2072       C  0.43136709  0.76137970  0.35812876    -0.20900
C2073       C  0.46925272  0.80366210  0.49228459    -0.20900
C2074       C  0.43892391  0.79990083  0.49396712    -0.20900
C2075       C  0.53898789  0.71539709  0.41517802    -0.22000
C2076       C  0.54049454  0.72282494  0.43901245    -0.22000
C2077       C  0.36403183  0.71288839  0.42255827    -0.22000
C2078       C  0.36677000  0.71492535  0.44639955    -0.22000
C2079       C  0.50246709  0.73842898  0.38396244    -0.17300
C2080       C  0.39612865  0.73563243  0.38896769    -0.17300
C2081       C  0.40152948  0.75480893  0.47227625    -0.17300
C2082       C  0.50812746  0.76525233  0.46739592    -0.17300
H2083       H  0.47472627  0.77258341  0.67455333     0.15600
H2084       H  0.41667360  0.76866732  0.67683241     0.15600
H2085       H  0.48283407  0.82545700  0.50302284     0.15600
H2086       H  0.42465017  0.81809402  0.50620299     0.15600
H2087       H  0.55601765  0.69904263  0.40459530     0.13900
H2088       H  0.55898272  0.71386236  0.45035854     0.13900
H2089       H  0.34438925  0.70216974  0.41348469     0.13900
H2090       H  0.34974883  0.70658062  0.45898736     0.13900
H2091       H  0.45160094  0.72191688  0.40899963     0.27100
H2092       H  0.45532326  0.72729199  0.45265652     0.27100
O2093       O  0.78716097  0.58636528  0.51422578    -0.73500
O2094       O  0.73333742  0.67684611  0.53920016    -0.73500
O2095       O  0.78144994  0.67830672  0.51043091    -0.73500
O2096       O  0.73969184  0.58410708  0.54341884    -0.73600
O2097       O  0.76911476  0.59273748  0.57442238    -0.73500
O2098       O  0.81132764  0.68638904  0.54121098    -0.73500
O2099       O  0.76306501  0.68584823  0.57003833    -0.73500
O2100       O  0.81732785  0.59358228  0.54485655    -0.73500
Ni2101     Ni  0.75936831  0.63117560  0.52578999     1.25400
Ni2102     Ni  0.79125703  0.63995108  0.55879972     1.25400
C2103       C  0.81167267  0.57671834  0.52456309     0.88700
C2104       C  0.73880645  0.69509706  0.55905631     0.88700
C2105       C  0.80418723  0.69605891  0.51994959     0.88700
C2106       C  0.74706694  0.57359234  0.56457879     0.88900
O2107       O  0.73172792  0.82021642  0.63594408    -0.73500
O2108       O  0.78200597  0.91012859  0.66334125    -0.73500
O2109       O  0.73354062  0.91493138  0.63465010    -0.73500
O2110       O  0.78065406  0.81789957  0.66414627    -0.73600
O2111       O  0.80754459  0.81193845  0.63151897    -0.73500
O2112       O  0.76482726  0.91298346  0.60442115    -0.73500
O2113       O  0.81257519  0.90340551  0.63286095    -0.73500
O2114       O  0.75928304  0.81991517  0.60350237    -0.73500
Ni2115     Ni  0.75563104  0.86582367  0.65055342     1.25400
Ni2116     Ni  0.78683394  0.86194836  0.61685181     1.25400
C2117       C  0.73718956  0.80530098  0.61524400     0.88700
C2118       C  0.80683851  0.91833920  0.65356217     0.88700
C2119       C  0.74263417  0.93121488  0.61498176     0.88700
C2120       C  0.80346616  0.80220592  0.65315840     0.88900
C2121       C  0.35863307  0.75906095  0.69110653     0.24600
C2122       C  0.37248183  0.72472524  0.37194293    -0.23500
C2123       C  0.36179862  0.67956941  0.37192526     0.19500
C2124       C  0.33574923  0.67007767  0.36035325     0.24500
C2125       C  0.32273154  0.70324359  0.67838543    -0.23500
C2126       C  0.33445292  0.74772804  0.67688555     0.19400
F2127       F  0.32193017  0.78023090  0.66245761    -0.13400
F2128       F  0.36781414  0.80345008  0.69158654    -0.15800
F2129       F  0.32359920  0.62810968  0.36373228    -0.15800
F2130       F  0.37544701  0.64539340  0.38471926    -0.13400
C2131       C  0.35805391  0.56118335  0.66738590     0.24600
C2132       C  0.32939591  0.54351485  0.66839855    -0.23500
C2133       C  0.32351152  0.50730445  0.68423825     0.19500
C2134       C  0.34561288  0.49102487  0.36721021     0.24500
C2135       C  0.37307992  0.51295062  0.36828122    -0.23500
C2136       C  0.37942266  0.54735396  0.35148861     0.19400
F2137       F  0.40550065  0.56971722  0.35200967    -0.13400
F2138       F  0.36456434  0.59616877  0.65230070    -0.15800
F2139       F  0.33943363  0.45580180  0.38221885    -0.15800
F2140       F  0.29620429  0.48885863  0.68517663    -0.13400
C2141       C  0.32706278  0.98792129  0.51245184     0.24600
C2142       C  0.32839630  0.94134701  0.51973113    -0.23500
C2143       C  0.35272702  0.91362367  0.51303250     0.19500
C2144       C  0.37352828  0.93011980  0.49719560     0.24500
C2145       C  0.37273767  0.97673479  0.48991213    -0.23500
C2146       C  0.34987846  0.00608344  0.49853352     0.19400
F2147       F  0.34935703  0.05195562  0.49314387    -0.13400
F2148       F  0.30409721  0.01578403  0.51911551    -0.15800
F2149       F  0.39449313  0.90024598  0.48882551    -0.15800
F2150       F  0.35597474  0.86978285  0.52140149    -0.13400
C2151       C  0.32776396  0.80393237  0.49094548     0.24600
C2152       C  0.32407829  0.78418769  0.51344560    -0.23500
C2153       C  0.34695212  0.75586807  0.52290898     0.19500
C2154       C  0.37292888  0.74744855  0.51005400     0.24500
C2155       C  0.37664357  0.76831111  0.48793045    -0.23500
C2156       C  0.35405742  0.79728687  0.47877389     0.19400
F2157       F  0.35739704  0.81872386  0.45764143    -0.13400
F2158       F  0.30699426  0.83313076  0.48142418    -0.15800
F2159       F  0.39426949  0.71872341  0.51904722    -0.15800
F2160       F  0.34424959  0.73682158  0.54464878    -0.13400
C2161       C  0.55972111  0.00564889  0.52043797     0.24600
C2162       C  0.58168820  0.97609744  0.51083570    -0.23500
C2163       C  0.57754255  0.95868305  0.48814340     0.19500
C2164       C  0.55120729  0.96707458  0.47616855     0.24500
C2165       C  0.52923850  0.99684190  0.48547974    -0.23500
C2166       C  0.53398662  0.01694139  0.50755457     0.19400
F2167       F  0.51364411  0.04691265  0.51668722    -0.13400
F2168       F  0.56308417  0.02317578  0.54229789    -0.15800
F2169       F  0.54711970  0.94586765  0.45523295    -0.15800
F2170       F  0.59823590  0.93075784  0.47799660    -0.13400
C2171       C  0.58053868  0.81882345  0.48592917     0.24600
C2172       C  0.58054590  0.81242779  0.51047313    -0.23500
C2173       C  0.55729529  0.78787010  0.52076796     0.19500
C2174       C  0.53441421  0.77074860  0.50681945     0.24500
C2175       C  0.53338621  0.78022841  0.48246701    -0.23500
C2176       C  0.55673083  0.80485769  0.47233633     0.19400
F2177       F  0.55612401  0.81697650  0.44924178    -0.13400
F2178       F  0.60296079  0.84068293  0.47499013    -0.15800
F2179       F  0.51308046  0.74542898  0.51720446    -0.15800
F2180       F  0.55672120  0.78034501  0.54432500    -0.13400
C2181       C  0.51686948  0.69924968  0.34600707     0.24600
C2182       C  0.52376166  0.73009726  0.36419906    -0.23500
C2183       C  0.55142468  0.75145296  0.36377641     0.19500
C2184       C  0.57350856  0.73749653  0.68051362     0.24500
C2185       C  0.56717437  0.70486023  0.66310812    -0.23500
C2186       C  0.53822782  0.68825302  0.66148132     0.19400
F2187       F  0.53133895  0.65600614  0.64525489    -0.13400
F2188       F  0.49080510  0.67682719  0.34600761    -0.15800
F2189       F  0.60116282  0.75428352  0.68257398    -0.15800
F2190       F  0.55832500  0.78337413  0.38015007    -0.13400
C2191       C  0.55749745  0.57954406  0.35376351     0.24600
C2192       C  0.57309496  0.54613882  0.67335516    -0.23500
C2193       C  0.56226997  0.50091301  0.67305678     0.19500
C2194       C  0.53797790  0.48953182  0.68734977     0.24500
C2195       C  0.52262300  0.52308977  0.36709889    -0.23500
C2196       C  0.53141099  0.56914382  0.36517171     0.19400
F2197       F  0.51667495  0.60319686  0.37697719    -0.13400
F2198       F  0.56877507  0.62201746  0.35679900    -0.15800
F2199       F  0.52998346  0.44467895  0.68937880    -0.15800
F2200       F  0.57615893  0.46760460  0.66023199    -0.13400
C2201       C  0.05650672  0.76033859  0.36793797     0.24600
C2202       C  0.02734101  0.77760818  0.36543277    -0.23500
C2203       C  0.01994837  0.80426539  0.34540812     0.19500
C2204       C  0.04099311  0.81624627  0.66259355     0.24500
C2205       C  0.07076327  0.80290684  0.66605651    -0.23500
C2206       C  0.07810121  0.77378381  0.68526707     0.19400
F2207       F  0.10646931  0.75921523  0.68890483    -0.13400
F2208       F  0.06406265  0.73256608  0.38644394    -0.15800
F2209       F  0.03271689  0.84318811  0.64401671    -0.15800
F2210       F  0.99224200  0.82244762  0.34255107    -0.13400
C2211       C  0.86521637  0.77701273  0.50240024     0.24600
C2212       C  0.87067693  0.76226923  0.47934070    -0.23500
C2213       C  0.85190661  0.72995051  0.46909397     0.19500
C2214       C  0.82865776  0.71165796  0.48183631     0.24500
C2215       C  0.82425656  0.72390436  0.50543907    -0.23500
C2216       C  0.84236662  0.75749569  0.51550746     0.19400
F2217       F  0.83834260  0.77064752  0.53812902    -0.13400
F2218       F  0.88261725  0.80909468  0.51239502    -0.15800
F2219       F  0.81192353  0.67911990  0.47152278    -0.15800
F2220       F  0.85716646  0.71383457  0.44710792    -0.13400
C2221       C  0.85722431  0.79145978  0.65962016     0.24600
C2222       C  0.82823550  0.78039933  0.66636849    -0.23500
C2223       C  0.82375427  0.75851516  0.35471620     0.19500
C2224       C  0.84762336  0.75178778  0.37013634     0.24500
C2225       C  0.87564766  0.76925561  0.36450416    -0.23500
C2226       C  0.88037433  0.78770601  0.67564741     0.19400
F2227       F  0.90662203  0.80656761  0.66983722    -0.13400
F2228       F  0.86283525  0.81065698  0.63829317    -0.15800
F2229       F  0.84294944  0.73085057  0.39119807    -0.15800
F2230       F  0.79633044  0.74606363  0.36160495    -0.13400
C2231       C  0.04321718  0.95365212  0.65958259     0.24600
C2232       C  0.07210960  0.96578526  0.66599395    -0.23500
C2233       C  0.07683891  0.98726587  0.35389082     0.19500
C2234       C  0.05318904  0.99394073  0.36939007     0.24500
C2235       C  0.02540547  0.97495052  0.36442920    -0.23500
C2236       C  0.02053922  0.95613206  0.34213844     0.19400
F2237       F  0.99442190  0.93661214  0.33665106    -0.13400
F2238       F  0.03751292  0.93454439  0.63839514    -0.15800
F2239       F  0.05797077  0.01582930  0.39001525    -0.15800
F2240       F  0.10428670  0.00033290  0.36033680    -0.13400
C2241       C  0.84527706  0.97673225  0.70412186     0.24600
C2242       C  0.87381369  0.95847327  0.36809077    -0.23500
C2243       C  0.88101175  0.93264443  0.34794848     0.19500
C2244       C  0.85974219  0.92448773  0.33080298     0.24500
C2245       C  0.83046881  0.93957949  0.66771578    -0.23500
C2246       C  0.82355503  0.96706665  0.68736484     0.19400
F2247       F  0.79562763  0.98386197  0.69058246    -0.13400
F2248       F  0.83812228  0.00436006  0.72251974    -0.15800
F2249       F  0.86776723  0.89918882  0.31181048    -0.15800
F2250       F  0.90844023  0.91338472  0.34530439    -0.13400
C2251       C  0.85488464  0.51892774  0.52236918     0.24600
C2252       C  0.83430506  0.54937221  0.51138085    -0.23500
C2253       C  0.83613748  0.55606996  0.48690901     0.19500
C2254       C  0.85818615  0.53415103  0.47381589     0.24500
C2255       C  0.87852469  0.50316712  0.48452056    -0.23500
C2256       C  0.87653975  0.49537128  0.50895091     0.19400
F2257       F  0.89560734  0.46515796  0.51976448    -0.13400
F2258       F  0.85376687  0.51142568  0.54590457    -0.15800
F2259       F  0.86016574  0.54451336  0.45056354    -0.15800
F2260       F  0.81721119  0.58565134  0.47554983    -0.13400
C2261       C  0.06970427  0.68983745  0.48496819     0.24600
C2262       C  0.07210668  0.69708353  0.50926789    -0.23500
C2263       C  0.05247308  0.72849050  0.52019426     0.19500
C2264       C  0.03064500  0.75209696  0.50692522     0.24500
C2265       C  0.02758989  0.74333225  0.48273148    -0.23500
C2266       C  0.04752926  0.71205638  0.47196833     0.19400
F2267       F  0.04486407  0.70130938  0.44889190    -0.13400
F2268       F  0.08790314  0.65910199  0.47385861    -0.15800
F2269       F  0.01233446  0.78305616  0.51771511    -0.15800
F2270       F  0.05461135  0.73658979  0.54357474    -0.13400
C2271       C  0.06206610  0.49067582  0.51620591     0.24600
C2272       C  0.08246061  0.52047213  0.50552909    -0.23500
C2273       C  0.08045606  0.52866043  0.48119676     0.19500
C2274       C  0.05708505  0.51120925  0.46827831     0.24500
C2275       C  0.03573759  0.48345322  0.47913768    -0.23500
C2276       C  0.03908678  0.47194751  0.50303102     0.19400
F2277       F  0.01943761  0.44395681  0.51376556    -0.13400
F2278       F  0.06381701  0.48077537  0.53952052    -0.15800
F2279       F  0.05436160  0.52409093  0.44537543    -0.15800
F2280       F  0.09967040  0.55688672  0.47011196    -0.13400
O2281       O  0.09483510  0.55981458  0.87411639    -0.73500
O2282       O  0.13550672  0.65483114  0.90673170    -0.73500
O2283       O  0.08851616  0.65251000  0.87655946    -0.73500
O2284       O  0.14220669  0.56148277  0.90358210    -0.73600
O2285       O  0.17270563  0.57051022  0.87319082    -0.73500
O2286       O  0.11920103  0.65960775  0.84620536    -0.73500
O2287       O  0.16569404  0.66371482  0.87620144    -0.73500
O2288       O  0.12531122  0.56750677  0.84370748    -0.73500
Ni2289     Ni  0.11422866  0.60682059  0.89138802     1.25400
Ni2290     Ni  0.14683954  0.61553489  0.85879658     1.25400
C2291       C  0.10245154  0.54957903  0.85312927     0.88700
C2292       C  0.15740352  0.67479872  0.89700652     0.88700
C2293       C  0.09463644  0.66935377  0.85626065     0.88700
C2294       C  0.16666394  0.55224005  0.89305495     0.88900
N2295       N  0.95524610  0.46631971  0.79754958    -0.35600
N2296       N  0.90876826  0.96646187  0.76233854    -0.56200
N2297       N  0.95016220  0.96398257  0.72502269    -0.35600
N2298       N  0.99638820  0.96259532  0.75893251    -0.56200
C2299       C  0.93240723  0.48797604  0.80852798     0.27900
C2300       C  0.98055971  0.48244746  0.80676984     0.27900
C2301       C  0.92501588  0.97795179  0.71420069     0.27900
C2302       C  0.97287698  0.98114032  0.71261584     0.27900
C2303       C  0.89385179  0.45968924  0.78229144     0.36600
C2304       C  0.89091239  0.95307347  0.74472478     0.36600
C2305       C  0.01350047  0.44996259  0.77692330     0.36600
C2306       C  0.01131803  0.95176557  0.73925078     0.36600
C2307       C  0.94334059  0.51797235  0.82517740    -0.20900
C2308       C  0.97380110  0.51434706  0.82412028    -0.20900
C2309       C  0.93159379  0.00474286  0.69467926    -0.20900
C2310       C  0.96199740  0.00727831  0.69383609    -0.20900
C2311       C  0.86673523  0.44033991  0.77763598    -0.22000
C2312       C  0.86513062  0.93537050  0.75393403    -0.22000
C2313       C  0.03920442  0.42850262  0.76889003    -0.28400
C2314       C  0.03783991  0.92936479  0.74485957    -0.22000
C2315       C  0.90219469  0.48044972  0.80360654    -0.17300
C2316       C  0.00930107  0.46880600  0.79935885    -0.17300
C2317       C  0.00279353  0.96926461  0.71703900    -0.17300
C2318       C  0.89678487  0.96301456  0.72080125    -0.17300
H2319       H  0.93079905  0.54073464  0.83660944     0.15600
H2320       H  0.98913025  0.53384026  0.83451806     0.15600
H2321       H  0.91665994  0.01939178  0.01472268     0.15600
H2322       H  0.97519997  0.02313652  0.01301428     0.15600
H2323       H  0.84952729  0.43274045  0.79017766     0.13900
H2324       H  0.84635308  0.92260634  0.74438878     0.13900
H2325       H  0.05798499  0.41675070  0.77928662     0.13900
H2326       H  0.05491279  0.91754942  0.73290200     0.13900
H2327       H  0.95366525  0.43995304  0.78521058     0.27100
H2328       H  0.95167372  0.93893572  0.73830557     0.27100
N2329       N  0.90811147  0.77733857  0.75817731    -0.35600
N2330       N  0.95040840  0.77885037  0.79686373    -0.56200
N2331       N  0.99499573  0.76965849  0.76021842    -0.35600
N2332       N  0.95209112  0.76992882  0.72340580    -0.56200
C2333       C  0.89257417  0.79418311  0.77648319     0.27900
C2334       C  0.89290248  0.78851864  0.73846778     0.27900
C2335       C  0.00971740  0.78159202  0.77977684     0.27900
C2336       C  0.01113607  0.78326293  0.74153063     0.27900
C2337       C  0.92545676  0.76559477  0.80769461     0.36600
C2338       C  0.97315578  0.75881824  0.80879416     0.36600
C2339       C  0.92878549  0.75586396  0.71084999     0.36600
C2340       C  0.97652818  0.75647338  0.71171826     0.36600
C2341       C  0.86759794  0.81788936  0.76838375    -0.20900
C2342       C  0.86801058  0.81491485  0.74422862    -0.20900
C2343       C  0.03540730  0.80382491  0.77365060    -0.20900
C2344       C  0.03603597  0.80575509  0.74940862    -0.20900
C2345       C  0.93229432  0.73761860  0.82692257    -0.22000
C2346       C  0.96266406  0.73311629  0.82755737    -0.22000
C2347       C  0.93844531  0.73211084  0.69112528    -0.22000
C2348       C  0.96891146  0.73305857  0.69152344    -0.22000
C2349       C  0.89687505  0.77793292  0.79958484    -0.17300
C2350       C  0.89951210  0.76982806  0.71617341    -0.17300
C2351       C  0.00490558  0.77109384  0.71798712    -0.17300
C2352       C  0.00296600  0.76397772  0.80223752    -0.17300
H2353       H  0.85003609  0.83304219  0.77888504     0.15600
H2354       H  0.85108164  0.82835122  0.73242826     0.15600
H2355       H  0.05237489  0.81570808  0.78542436     0.15600
H2356       H  0.05351096  0.82020790  0.73889779     0.15600
H2357       H  0.91707956  0.72094673  0.83875313     0.13900
H2358       H  0.97535014  0.71231778  0.83999724     0.13900
H2359       H  0.92500475  0.71969775  0.01103634     0.13900
H2360       H  0.98367070  0.72140750  0.01202934     0.13900
H2361       H  0.92499850  0.75230780  0.75946448     0.27100
H2362       H  0.97733807  0.74708130  0.75988486     0.27100
O2363       O  0.13682766  0.83505968  0.93747240    -0.73500
O2364       O  0.09374613  0.93417047  0.96489610    -0.73500
O2365       O  0.14228419  0.92829170  0.93752235    -0.73500
O2366       O  0.08900076  0.84244762  0.96570349    -0.73600
O2367       O  0.11927615  0.83416918  0.99640415    -0.73500
O2368       O  0.16928802  0.92612422  0.97032964    -0.73500
O2369       O  0.12015643  0.92648321  0.99781640    -0.73500
O2370       O  0.16781375  0.83144319  0.96795246    -0.73500
Ni2371     Ni  0.11468827  0.88515671  0.95017982     1.25400
Ni2372     Ni  0.14547658  0.87944090  0.98418185     1.25400
C2373       C  0.15896768  0.81636004  0.94803503     0.88700
C2374       C  0.09760733  0.94295337  0.98657400     0.88700
C2375       C  0.16400798  0.94248060  0.94977301     0.88700
C2376       C  0.09467542  0.82610090  0.98629539     0.88900
C2377       C  0.67725348  0.71654541  0.93565429     0.87500
C2378       C  0.69548508  0.69197297  0.91694533    -0.52800
C2379       C  0.71417634  0.71927619  0.90485748     0.10400
C2380       C  0.71100870  0.77112155  0.91113211     0.21300
C2381       C  0.69952626  0.74340007  0.95057076    -0.53500
C2382       C  0.71684609  0.77246775  0.93770707     0.10500
C2383       C  0.66002788  0.75424721  0.92228524    -0.53000
C2384       C  0.67743639  0.78331935  0.90945250     0.11100
H2385       H  0.69436952  0.65523110  0.91381323     0.15600
H2386       H  0.72524451  0.79427573  0.90063341     0.01300
H2387       H  0.70113227  0.74021911  0.63642233     0.15900
H2388       H  0.63617078  0.75851097  0.92347760     0.15700
C2389       C  0.72865329  0.54084951  0.91197677     0.87500
C2390       C  0.74603952  0.50222618  0.92430996    -0.52800
C2391       C  0.72911137  0.97308412  0.93736048     0.10400
C2392       C  0.69558000  0.98581584  0.93680662     0.21300
C2393       C  0.70533299  0.51545848  0.89747449    -0.53500
C2394       C  0.68838340  0.98602590  0.91038895     0.10500
C2395       C  0.71165462  0.56491380  0.93169260    -0.53000
C2396       C  0.69317376  0.53735166  0.94404627     0.11100
H2397       H  0.76981908  0.49765156  0.92249153     0.15600
H2398       H  0.68173985  0.96227258  0.94742108     0.01300
H2399       H  0.70357087  0.51833372  0.87849442     0.15900
H2400       H  0.71299994  0.60155360  0.93501388     0.15700
O2401       O  0.62056973  0.57978230  0.00248534    -0.73500
O2402       O  0.66504892  0.67226442  0.97037140    -0.73500
O2403       O  0.61549032  0.67141156  0.99680069    -0.73500
O2404       O  0.67152037  0.57943625  0.97570672    -0.73600
O2405       O  0.64429188  0.56887626  0.94358440    -0.73500
O2406       O  0.58775109  0.66053689  0.96502948    -0.73500
O2407       O  0.63788209  0.66187041  0.93823213    -0.73500
O2408       O  0.59362847  0.56871692  0.97024275    -0.73500
Ni2409     Ni  0.64421931  0.62575746  0.98743335     1.25400
Ni2410     Ni  0.61506227  0.61446016  0.95305566     1.25400
C2411       C  0.59803502  0.56277862  0.99227431     0.88700
C2412       C  0.65868537  0.68247755  0.94899665     0.88700
C2413       C  0.59175428  0.67944915  0.98506126     0.88700
C2414       C  0.66782116  0.56071961  0.95563152     0.88900
O2415       O  0.67423039  0.84214498  0.87915924    -0.73500
O2416       O  0.62912128  0.94024489  0.84877821    -0.73500
O2417       O  0.67598340  0.93687610  0.87884639    -0.73500
O2418       O  0.62765170  0.84817592  0.84869490    -0.73600
O2419       O  0.59550099  0.85228820  0.87823788    -0.73500
O2420       O  0.64585465  0.93790705  0.90979943    -0.73500
O2421       O  0.59883198  0.94448017  0.87955278    -0.73500
O2422       O  0.64160692  0.84399326  0.90845900    -0.73500
Ni2423     Ni  0.65309846  0.89189468  0.86292953     1.25400
Ni2424     Ni  0.61958321  0.89484604  0.89522911     1.25400
C2425       C  0.66421691  0.82552077  0.89845407     0.88700
C2426       C  0.60515651  0.95532793  0.85836056     0.88700
C2427       C  0.66893987  0.95217388  0.89916743     0.88700
C2428       C  0.60266181  0.83805654  0.85768174     0.88900
O2429       O  0.25788287  0.81126465  0.91264465    -0.73500
O2430       O  0.31073149  0.89983939  0.88599125    -0.73500
O2431       O  0.26253919  0.90488785  0.91423901    -0.73500
O2432       O  0.30643974  0.80845211  0.88381923    -0.73600
O2433       O  0.27788035  0.81847987  0.85219303    -0.73500
O2434       O  0.23162958  0.91084654  0.88374364    -0.73500
O2435       O  0.28037753  0.91045909  0.85542086    -0.73500
O2436       O  0.22958728  0.81678237  0.88062631    -0.73500
Ni2437     Ni  0.28517234  0.85571264  0.90043941     1.25400
Ni2438     Ni  0.25358415  0.86429667  0.86699383     1.25400
C2439       C  0.23531898  0.79881226  0.90085704     0.88700
C2440       C  0.30501945  0.91779312  0.86580328     0.88700
C2441       C  0.24044326  0.92447931  0.90380641     0.88700
C2442       C  0.30136353  0.80202973  0.86198020     0.88900
C2443       C  0.22388000  0.53253219  0.93937241     0.87500
C2444       C  0.20801325  0.55645389  0.91899745    -0.52800
C2445       C  0.19060476  0.52881790  0.90618590     0.10400
C2446       C  0.19272456  0.97724942  0.91384554     0.21300
C2447       C  0.19989920  0.50669681  0.95320237    -0.53500
C2448       C  0.18399630  0.97700125  0.93985061     0.10500
C2449       C  0.24234932  0.49416726  0.92814512    -0.53000
C2450       C  0.22623953  0.96486322  0.91484497     0.11100
H2451       H  0.20936865  0.59314899  0.91545282     0.15600
H2452       H  0.17966709  0.95377226  0.90272762     0.01300
H2453       H  0.19617098  0.51059401  0.63883317     0.15900
H2454       H  0.26605496  0.49012532  0.93074387     0.15700
O2455       O  0.31068373  0.58823082  0.97058828    -0.73500
O2456       O  0.25649349  0.68059678  0.94697904    -0.73500
O2457       O  0.30502726  0.67977075  0.97546655    -0.73500
O2458       O  0.26230529  0.58775869  0.94257956    -0.73600
O2459       O  0.23375374  0.57667893  0.97396467    -0.73500
O2460       O  0.27595519  0.66915008  0.00663374    -0.73500
O2461       O  0.22695077  0.66944178  0.97778047    -0.73500
O2462       O  0.28195455  0.57743346  0.00188518    -0.73500
Ni2463     Ni  0.28450266  0.63463475  0.95773991     1.25400
Ni2464     Ni  0.25349531  0.62314265  0.99116543     1.25400
C2465       C  0.30597014  0.56926198  0.99058442     0.88700
C2466       C  0.23223538  0.68855153  0.95784924     0.88700
C2467       C  0.29910448  0.68585320  0.99719133     0.88700
C2468       C  0.24122616  0.56681237  0.95292569     0.88900
C2469       C  0.17487763  0.70895674  0.91117714     0.87500
C2470       C  0.15667631  0.74721476  0.92295889    -0.52800
C2471       C  0.17302834  0.77580215  0.93678135     0.10400
C2472       C  0.20647933  0.76342006  0.93724153     0.21300
C2473       C  0.19883329  0.73515004  0.89749225    -0.53500
C2474       C  0.21501330  0.76434771  0.91101625     0.10500
C2475       C  0.19082361  0.68455382  0.93151116    -0.53000
C2476       C  0.20814859  0.71193475  0.94471213     0.11100
H2477       H  0.13296408  0.75148517  0.92049879     0.15600
H2478       H  0.21971096  0.78660727  0.94838398     0.01300
H2479       H  0.20165814  0.73280424  0.87860370     0.15900
H2480       H  0.18940450  0.64781025  0.93483626     0.15700
N2481       N  0.44808350  0.50631354  0.72654245    -0.35600
N2482       N  0.49270217  0.01462730  0.76170010    -0.56200
N2483       N  0.44876714  0.00946702  0.79932942    -0.35600
N2484       N  0.40331429  0.00004258  0.76322114    -0.56200
C2485       C  0.47232160  0.49969883  0.71294947     0.27900
C2486       C  0.42436988  0.49410971  0.71385271     0.27900
C2487       C  0.47428641  0.00025675  0.81121376     0.27900
C2488       C  0.42622679  0.99253596  0.81225752     0.27900
C2489       C  0.50904458  0.52437992  0.74233413     0.36600
C2490       C  0.50844962  0.02771584  0.78054584     0.36600
C2491       C  0.38589449  0.50879114  0.74412889     0.36600
C2492       C  0.38624997  0.00523996  0.78260823     0.36600
C2493       C  0.46386634  0.48274681  0.69131269    -0.20900
C2494       C  0.43360156  0.47869498  0.69198065    -0.20900
C2495       C  0.46787265  0.97837742  0.83224672    -0.20900
C2496       C  0.43762426  0.97436001  0.83314435    -0.20900
C2497       C  0.53539712  0.54402029  0.74926735    -0.22000
C2498       C  0.53471312  0.04712011  0.77347308    -0.22000
C2499       C  0.35769115  0.52088129  0.75167076    -0.22000
C2500       C  0.35766378  0.01764920  0.77593757    -0.22000
C2501       C  0.50103224  0.51400352  0.71890357    -0.17300
C2502       C  0.39468212  0.50364467  0.72027483    -0.17300
C2503       C  0.39570949  0.99434590  0.80585517    -0.17300
C2504       C  0.50303068  0.01192179  0.80355150    -0.17300
H2505       H  0.47850925  0.47621598  0.01002297     0.15600
H2506       H  0.42052396  0.46886964  0.01127989     0.15600
H2507       H  0.48327648  0.96664709  0.84567547     0.15600
H2508       H  0.42562403  0.95951799  0.84766559     0.15600
H2509       H  0.55398929  0.55380860  0.73859233     0.13900
H2510       H  0.55251397  0.05868282  0.78454235     0.13900
H2511       H  0.33870304  0.53089944  0.74112868     0.13900
H2512       H  0.33849996  0.02301257  0.78690470     0.13900
H2513       H  0.44703219  0.52540151  0.74192417     0.27100
H2514       H  0.44668109  0.02890593  0.78392951     0.27100
N2515       N  0.45021770  0.73894598  0.72596620    -0.35600
N2516       N  0.49742232  0.75086019  0.75903224    -0.56200
N2517       N  0.45548707  0.75311263  0.79800653    -0.35600
N2518       N  0.40880912  0.74226119  0.76357832    -0.56200
C2519       C  0.47297214  0.74846184  0.71156336     0.27900
C2520       C  0.42494300  0.74666623  0.71375593     0.27900
C2521       C  0.47919793  0.77418547  0.80714577     0.27900
C2522       C  0.43134133  0.76858291  0.80974646     0.27900
C2523       C  0.51248658  0.73319386  0.74052753     0.36600
C2524       C  0.51488122  0.74465922  0.77811922     0.36600
C2525       C  0.39072764  0.72872951  0.74620591     0.36600
C2526       C  0.39459299  0.73376676  0.78389375     0.36600
C2527       C  0.46209342  0.76338124  0.68995628    -0.20900
C2528       C  0.43173582  0.76143156  0.69119937    -0.20900
C2529       C  0.46996308  0.80360071  0.82499929    -0.20900
C2530       C  0.43965530  0.79973778  0.82676051    -0.20900
C2531       C  0.53937569  0.71444479  0.74805759    -0.22000
C2532       C  0.54101121  0.72217372  0.77186328    -0.22000
C2533       C  0.36478941  0.71176597  0.75566519    -0.22000
C2534       C  0.36759120  0.71390269  0.77951384    -0.22000
C2535       C  0.50289883  0.73786832  0.71685676    -0.17300
C2536       C  0.39658736  0.73522489  0.72201188    -0.17300
C2537       C  0.40231089  0.75413508  0.80531541    -0.17300
C2538       C  0.50877361  0.76495792  0.80017652    -0.17300
H2539       H  0.47475259  0.77197960  0.00836509     0.15600
H2540       H  0.41676908  0.76749904  0.01061237     0.15600
H2541       H  0.48355134  0.82557045  0.83563823     0.15600
H2542       H  0.42539053  0.81803616  0.83896317     0.15600
H2543       H  0.55633305  0.69789638  0.73747769     0.13900
H2544       H  0.55952066  0.71326620  0.78319744     0.13900
H2545       H  0.34520187  0.70072966  0.74662009     0.13900
H2546       H  0.35067271  0.70534552  0.79215082     0.13900
H2547       H  0.45209449  0.72112502  0.74188019     0.27100
H2548       H  0.45602272  0.72663012  0.78566130     0.27100
O2549       O  0.78732823  0.58711597  0.84769950    -0.73500
O2550       O  0.73332067  0.67737579  0.87260395    -0.73500
O2551       O  0.78146707  0.67903203  0.84398834    -0.73500
O2552       O  0.73981734  0.58466064  0.87684067    -0.73600
O2553       O  0.76913019  0.59337564  0.90790470    -0.73500
O2554       O  0.81128838  0.68712792  0.87480116    -0.73500
O2555       O  0.76292200  0.68650094  0.90350700    -0.73500
O2556       O  0.81738951  0.59435242  0.87838943    -0.73500
Ni2557     Ni  0.75944645  0.63180524  0.85925670     1.25400
Ni2558     Ni  0.79122897  0.64065268  0.89232547     1.25400
C2559       C  0.81181702  0.57749330  0.85807338     0.88700
C2560       C  0.73870359  0.69571654  0.89244695     0.88700
C2561       C  0.80416390  0.69681365  0.85354382     0.88700
C2562       C  0.74715297  0.57415721  0.89800954     0.88900
O2563       O  0.73156818  0.82052436  0.96918319    -0.73500
O2564       O  0.78216127  0.90997255  0.99651278    -0.73500
O2565       O  0.73363460  0.91511624  0.96788142    -0.73500
O2566       O  0.78047609  0.81777017  0.99739599    -0.73600
O2567       O  0.80724897  0.81139484  0.96472836    -0.73500
O2568       O  0.76496315  0.91309894  0.93768314    -0.73500
O2569       O  0.81274386  0.90279310  0.96606100    -0.73500
O2570       O  0.75904564  0.82016001  0.93669350    -0.73500
Ni2571     Ni  0.75561531  0.86588402  0.98378064     1.25400
Ni2572     Ni  0.78678282  0.86173579  0.95006679     1.25400
C2573       C  0.73692228  0.80574338  0.94844387     0.88700
C2574       C  0.80702920  0.91790481  0.98672384     0.88700
C2575       C  0.74275221  0.93138441  0.94821977     0.88700
C2576       C  0.80321364  0.80183874  0.98640128     0.88900
C2577       C  0.35887320  0.75772251  0.02477051     0.24600
C2578       C  0.37286391  0.72455726  0.70499849    -0.23500
C2579       C  0.36234237  0.67932253  0.70469377     0.19500
C2580       C  0.33633475  0.66986704  0.69303697     0.24500
C2581       C  0.32253025  0.70216091  0.01258273    -0.23500
C2582       C  0.33460720  0.74633845  0.01066761     0.19400
F2583       F  0.32238194  0.77850426  0.99589243    -0.13400
F2584       F  0.36833236  0.80197445  0.02485837    -0.15800
F2585       F  0.32435016  0.62772481  0.69615841    -0.15800
F2586       F  0.37614382  0.64495320  0.71725090    -0.13400
C2587       C  0.35865848  0.56188057  0.00168619     0.24600
C2588       C  0.33025569  0.54318447  0.00229884    -0.23500
C2589       C  0.32465133  0.50632849  0.01781482     0.19500
C2590       C  0.34548807  0.49119289  0.69986255     0.24500
C2591       C  0.37290413  0.51333131  0.70093197    -0.23500
C2592       C  0.37919579  0.54744560  0.68395377     0.19400
F2593       F  0.40520236  0.57000133  0.68436872    -0.13400
F2594       F  0.36488397  0.59753296  0.98692754    -0.15800
F2595       F  0.33941472  0.45588087  0.71484572    -0.15800
F2596       F  0.29763753  0.48684020  0.01830083    -0.13400
C2597       C  0.32738297  0.98747831  0.84566658     0.24600
C2598       C  0.32903736  0.94084175  0.85285442    -0.23500
C2599       C  0.35357250  0.91363580  0.84605324     0.19500
C2600       C  0.37431570  0.93073935  0.83030069     0.24500
C2601       C  0.37315356  0.97740200  0.82308236    -0.23500
C2602       C  0.35004751  0.00620022  0.83176403     0.19400
F2603       F  0.34914450  0.05210527  0.82644835    -0.13400
F2604       F  0.30422916  0.01488794  0.85239329    -0.15800
F2605       F  0.39558006  0.90138896  0.82193210    -0.15800
F2606       F  0.35709431  0.86970859  0.85424314    -0.13400
C2607       C  0.32865197  0.80290013  0.82439401     0.24600
C2608       C  0.32526504  0.78333152  0.84696934    -0.23500
C2609       C  0.34836383  0.75538082  0.85637365     0.19500
C2610       C  0.37420809  0.74700212  0.84334480     0.24500
C2611       C  0.37752955  0.76747848  0.82108553    -0.23500
C2612       C  0.35479677  0.79625993  0.81203470     0.19400
F2613       F  0.35789546  0.81766078  0.79086725    -0.13400
F2614       F  0.30773808  0.83195400  0.81496258    -0.15800
F2615       F  0.39583151  0.71878737  0.85232670    -0.15800
F2616       F  0.34601960  0.73667494  0.87821796    -0.13400
C2617       C  0.56000645  0.00748558  0.85338784     0.24600
C2618       C  0.58206661  0.97827527  0.84363564    -0.23500
C2619       C  0.57818058  0.96205604  0.82067439     0.19500
C2620       C  0.55192629  0.97099172  0.80861528     0.24500
C2621       C  0.52971475  0.00006020  0.81818739    -0.23500
C2622       C  0.53434539  0.01927177  0.84049153     0.19400
F2623       F  0.51392111  0.04880142  0.84986719    -0.13400
F2624       F  0.56316985  0.02413788  0.87544628    -0.15800
F2625       F  0.54809962  0.95072863  0.78740475    -0.15800
F2626       F  0.59900529  0.93465106  0.81032389    -0.13400
C2627       C  0.58058685  0.82036644  0.81861087     0.24600
C2628       C  0.58075368  0.81362235  0.84313507    -0.23500
C2629       C  0.55782817  0.78835942  0.85342616     0.19500
C2630       C  0.53510846  0.77076762  0.83949598     0.24500
C2631       C  0.53399654  0.78022374  0.81515228    -0.23500
C2632       C  0.55703547  0.80548034  0.80499430     0.19400
F2633       F  0.55628274  0.81744433  0.78188077    -0.13400
F2634       F  0.60251188  0.84356733  0.80775200    -0.15800
F2635       F  0.51396140  0.74508763  0.84989357    -0.15800
F2636       F  0.55737985  0.78070633  0.87697506    -0.13400
C2637       C  0.51733661  0.69930837  0.67874725     0.24600
C2638       C  0.52422749  0.72978029  0.69710067    -0.23500
C2639       C  0.55200312  0.75080598  0.69691821     0.19500
C2640       C  0.57364506  0.73789962  0.01420356     0.24500
C2641       C  0.56733633  0.70549345  0.99667026    -0.23500
C2642       C  0.53840563  0.68885983  0.99499783     0.19400
F2643       F  0.53149858  0.65698168  0.97859026    -0.13400
F2644       F  0.49114962  0.67723760  0.67849234    -0.15800
F2645       F  0.60125901  0.75483818  0.01628025    -0.15800
F2646       F  0.55893279  0.78237227  0.71346209    -0.13400
C2647       C  0.55812487  0.57993456  0.68656912     0.24600
C2648       C  0.57346637  0.54653790  0.00691843    -0.23500
C2649       C  0.56286907  0.50117215  0.00669067     0.19500
C2650       C  0.53875652  0.48950650  0.02111133     0.24500
C2651       C  0.52276760  0.52444252  0.70004754    -0.23500
C2652       C  0.53182166  0.57028585  0.69781837     0.19400
F2653       F  0.51718709  0.60487738  0.70929624    -0.13400
F2654       F  0.56983287  0.62207198  0.68967600    -0.15800
F2655       F  0.53090220  0.44458138  0.02310394    -0.15800
F2656       F  0.57678750  0.46803555  0.99377173    -0.13400
C2657       C  0.05636147  0.76071256  0.70136913     0.24600
C2658       C  0.02724247  0.77829883  0.69915451    -0.23500
C2659       C  0.01969271  0.80528751  0.67927607     0.19500
C2660       C  0.04155684  0.81643377  0.99627679     0.24500
C2661       C  0.07126046  0.80285901  0.99991653    -0.23500
C2662       C  0.07835175  0.77435467  0.01942142     0.19400
F2663       F  0.10662792  0.75953924  0.02326445    -0.13400
F2664       F  0.06400923  0.73252787  0.71969091    -0.15800
F2665       F  0.03344644  0.84259550  0.97738203    -0.15800
F2666       F  0.99197981  0.82359449  0.67666155    -0.13400
C2667       C  0.86539886  0.77731865  0.83604450     0.24600
C2668       C  0.87051075  0.76301832  0.81286260    -0.23500
C2669       C  0.85137801  0.73129092  0.80254245     0.19500
C2670       C  0.82824777  0.71291716  0.81536617     0.24500
C2671       C  0.82419479  0.72471218  0.83906356    -0.23500
C2672       C  0.84259311  0.75783733  0.84919737     0.19400
F2673       F  0.83896683  0.77043775  0.87194278    -0.13400
F2674       F  0.88314627  0.80882736  0.84612677    -0.15800
F2675       F  0.81136797  0.68056490  0.80503504    -0.15800
F2676       F  0.85618457  0.71569446  0.78039836    -0.13400
C2677       C  0.85696641  0.79163390  0.99290349     0.24600
C2678       C  0.82804154  0.78027390  0.99966493    -0.23500
C2679       C  0.82382125  0.75870192  0.68818835     0.19500
C2680       C  0.84767879  0.75114638  0.70353918     0.24500
C2681       C  0.87582277  0.76827648  0.69799671    -0.23500
C2682       C  0.88003193  0.78902779  0.00905447     0.19400
F2683       F  0.90609073  0.80845146  0.00320315    -0.13400
F2684       F  0.86254056  0.81003230  0.97139127    -0.15800
F2685       F  0.84287975  0.72987934  0.72449752    -0.15800
F2686       F  0.79629583  0.74674102  0.69505794    -0.13400
C2687       C  0.04392805  0.95217455  0.99290110     0.24600
C2688       C  0.07275610  0.96440425  0.99946063    -0.23500
C2689       C  0.07657350  0.98806716  0.68745286     0.19500
C2690       C  0.05302336  0.99396279  0.70312598     0.24500
C2691       C  0.02540635  0.97431845  0.69827504    -0.23500
C2692       C  0.02049299  0.95570356  0.67595050     0.19400
F2693       F  0.99447932  0.93577607  0.67054104    -0.13400
F2694       F  0.03840544  0.93316481  0.97165973    -0.15800
F2695       F  0.05775324  0.01582468  0.72376541    -0.15800
F2696       F  0.10392108  0.00192835  0.69370636    -0.13400
C2697       C  0.84546944  0.97732102  0.03691660     0.24600
C2698       C  0.87395635  0.95731315  0.70210200    -0.23500
C2699       C  0.88120175  0.93224580  0.68172036     0.19500
C2700       C  0.85999307  0.92479146  0.66443139     0.24500
C2701       C  0.83067648  0.93918106  0.00080329    -0.23500
C2702       C  0.82376744  0.96726023  0.02022423     0.19400
F2703       F  0.79586197  0.98427807  0.02327396    -0.13400
F2704       F  0.83831896  0.00547935  0.05510648    -0.15800
F2705       F  0.86810801  0.90029890  0.64519213    -0.15800
F2706       F  0.90864868  0.91313666  0.67892670    -0.13400
C2707       C  0.85522786  0.52005539  0.85609223     0.24600
C2708       C  0.83446737  0.54997997  0.84496058    -0.23500
C2709       C  0.83614033  0.55594136  0.82042529     0.19500
C2710       C  0.85810639  0.53358466  0.80739886     0.24500
C2711       C  0.87857766  0.50300182  0.81825616    -0.23500
C2712       C  0.87684179  0.49617541  0.84277580     0.19400
F2713       F  0.89616889  0.46667641  0.85379767    -0.13400
F2714       F  0.85437631  0.51345011  0.87970135    -0.15800
F2715       F  0.85992919  0.54324128  0.78406243    -0.15800
F2716       F  0.81718903  0.58530306  0.80893262    -0.13400
C2717       C  0.06991055  0.68989118  0.81866145     0.24600
C2718       C  0.07239936  0.69706014  0.84296395    -0.23500
C2719       C  0.05257125  0.72809636  0.85396796     0.19500
C2720       C  0.03052901  0.75143892  0.84077162     0.24500
C2721       C  0.02746665  0.74282264  0.81655663    -0.23500
C2722       C  0.04751009  0.71177516  0.80574673     0.19400
F2723       F  0.04475150  0.70094779  0.78268820    -0.13400
F2724       F  0.08827265  0.65954619  0.80745366    -0.15800
F2725       F  0.01206202  0.78204870  0.85165100    -0.15800
F2726       F  0.05474184  0.73613974  0.87735191    -0.13400
C2727       C  0.06240323  0.49088258  0.84964266     0.24600
C2728       C  0.08267468  0.52075432  0.83887282    -0.23500
C2729       C  0.08038443  0.52914369  0.81456705     0.19500
C2730       C  0.05688464  0.51168658  0.80178176     0.24500
C2731       C  0.03576646  0.48364507  0.81273897    -0.23500
C2732       C  0.03932444  0.47214645  0.83660158     0.19400
F2733       F  0.01979089  0.44410644  0.84743673    -0.13400
F2734       F  0.06438890  0.48087452  0.87293316    -0.15800
F2735       F  0.05382628  0.52472183  0.77892275    -0.15800
F2736       F  0.09947960  0.55744230  0.80339645    -0.13400
loop_ 
_geom_bond_atom_site_label_1 
_geom_bond_atom_site_label_2 
_geom_bond_distance 
_geom_bond_site_symmetry_2 
_ccdc_geom_bond_type 
O1           Ni9   1.913       .  S
O1           C11   1.280       .  A
O2           Ni9   1.923       .  S
O2           C12   1.282       .  A
O3           Ni9   1.928       .  S
O3           C13   1.283       .  A
O4           Ni9   1.926       .  S
O4           C14   1.283       .  A
O5          Ni10   1.910       .  S
O5           C14   1.277       .  A
O6          Ni10   1.902       .  S
O6           C13   1.279       .  A
O7          Ni10   1.928       .  S
O7           C12   1.284       .  A
O8          Ni10   1.919       .  S
O8           C11   1.283       .  A
Ni9         Ni10   2.388       .  S
C11         C448   1.481       .  S
C12         C189   1.516       .  S
C13         C438   1.478       .  S
C14         C165   1.465       .  S
N15          C20   1.353       .  A
N15          C19   1.353       .  A
N15          H47   1.044       .  S
N16          C24   1.352       .  A
N16        C1391   1.348       .  A
N17          C22   1.349       .  A
N17          C21   1.346       .  A
N17          H48   1.043       .  S
N18          C26   1.345   1_655  A
N18        C1393   1.345   1_655  A
C19          C27   1.388   1_565  A
C19          C35   1.417       .  A
C20          C36   1.417   1_655  A
C20          C28   1.387   1_565  A
C21          C29   1.386       .  A
C21          C38   1.408       .  A
C22          C37   1.412   1_655  A
C22          C30   1.388       .  A
C23        N1384   1.348       .  A
C23          C35   1.413       .  A
C23          C31   1.386       .  A
C24          C38   1.417       .  A
C24          C32   1.386       .  A
C25        N1386   1.345   1_455  A
C25          C33   1.386       .  A
C25          C36   1.404       .  A
C26          C34   1.387       .  A
C26          C37   1.409       .  A
C27          C28   1.382       .  A
C27          H39   1.082       .  S
C28          H40   1.082       .  S
C29          C30   1.381       .  A
C29         H953   1.082       .  S
C30         H954   1.082       .  S
C31        C1400   1.380       .  A
C31          H43   1.082       .  S
C32        C1399   1.380       .  A
C32          H44   1.082       .  S
C33        C1402   1.376       .  A
C33          H45   1.082       .  S
C34        C1401   1.376       .  A
C34          H46   1.082       .  S
C35         C431   1.498   1_565  S
C36         C451   1.491       .  S
C37         C411   1.489       .  S
C38         C418   1.495       .  S
H41         C485   1.082       .  S
H42         C486   1.082       .  S
N49          C54   1.350       .  A
N49          C53   1.347       .  A
N49          H81   1.043       .  S
N50          C57   1.349       .  A
N50          C58   1.350       .  A
N51          C56   1.352   1_655  A
N51          C55   1.348   1_655  A
N51          H82   1.043       .  S
N52          C59   1.346       .  A
N52          C60   1.344       .  A
C53          C61   1.386       .  A
C53          C69   1.406       .  A
C54          C70   1.414       .  A
C54          C62   1.388       .  A
C55          C63   1.385       .  A
C55          C72   1.409       .  A
C56          C71   1.417       .  A
C56          C64   1.389       .  A
C57          C69   1.411       .  A
C57          C65   1.386       .  A
C58          C72   1.411   1_655  A
C58          C66   1.386       .  A
C59          C67   1.387       .  A
C59          C70   1.411       .  A
C60          C68   1.386       .  A
C60          C71   1.408   1_655  A
C61          C62   1.380       .  A
C61          H73   1.082       .  S
C62          H74   1.082       .  S
C63          C64   1.381       .  A
C63          H75   1.082       .  S
C64          H76   1.082       .  S
C65          C66   1.378       .  A
C65          H77   1.082       .  S
C66          H78   1.082       .  S
C67          C68   1.379       .  A
C67         H991   1.082       .  S
C68         H992   1.082       .  S
C69         C388   1.484       .  S
C70         C401   1.492       .  S
C71         C378   1.491       .  S
C72         C441   1.494       .  S
H79         C523   1.082       .  S
H80         C524   1.082       .  S
O83         Ni91   1.892       .  S
O83          C93   1.276       .  A
O84         Ni91   1.890       .  S
O84          C94   1.275       .  A
O85         Ni91   1.920       .  S
O85          C95   1.282       .  A
O86         Ni91   1.923       .  S
O86          C96   1.284       .  A
O87         Ni92   1.910       .  S
O87          C96   1.279       .  A
O88         Ni92   1.909       .  S
O88          C95   1.279       .  A
O89         Ni92   1.928       .  S
O89          C94   1.285       .  A
O90         Ni92   1.940       .  S
O90          C93   1.285       .  A
Ni91        Ni92   2.387       .  S
C93         C191   1.473       .  S
C94         C408   1.473       .  S
C95         C168   1.470       .  S
C96         C381   1.482       .  S
C97         C132   1.509       .  S
C97          C98   1.520       .  S
C97         C103   1.523       .  S
C97         C101   1.544       .  S
C98         H105   1.080       .  S
C98          C99   1.355       .  D
C99         C280   1.474       .  S
C99         C100   1.546       .  S
C100        C104   1.554       .  S
C100        C102   1.536       .  S
C100        H106   1.111       .  S
C101        H563   1.086       .  S
C101        C102   1.370       .  D
C102        C293   1.473       .  S
C103        H108   1.087       .  S
C103        C104   1.371       .  D
C104        C145   1.477       .  S
H107       C1013   1.086       .  S
C109        C282   1.512       .  S
C109        C110   1.518       .  S
C109        C115   1.527       .  S
C109        C113   1.542       .  S
C110        H117   1.087   1_545  S
C110       C1479   1.369   1_545  D
C111        C295   1.471       .  S
C111        C112   1.553       .  S
C111       C1478   1.369       .  D
C112        C114   1.538       .  S
C112       C1484   1.548       .  S
C112        H118   1.111       .  S
C113        H119   1.086       .  S
C113       C1482   1.368   1_545  D
C114        C147   1.477       .  S
C114       C1481   1.368       .  D
C115        H120   1.080       .  S
C115        C116   1.361       .  D
C116        C134   1.478       .  S
C116       C1480   1.548   1_545  S
O121       Ni129   1.921       .  S
O121        C131   1.283       .  A
O122       Ni129   1.916       .  S
O122        C132   1.281       .  A
O123       Ni129   1.912       .  S
O123        C133   1.281       .  A
O124       Ni129   1.926       .  S
O124        C134   1.281       .  A
O125       Ni130   1.927       .  S
O125        C134   1.283       .  A
O126       Ni130   1.927       .  S
O126        C133   1.283       .  A
O127       Ni130   1.924       .  S
O127        C132   1.283       .  A
O128       Ni130   1.918       .  S
O128        C131   1.280       .  A
Ni129      Ni130   2.389       .  S
C131        C368   1.473       .  S
C133        C361   1.482       .  S
O135       Ni143   1.934       .  S
O135        C145   1.282       .  A
O136       Ni143   1.918       .  S
O136        C146   1.284       .  A
O137       Ni143   1.913       .  S
O137        C147   1.281       .  A
O138       Ni143   1.913       .  S
O138        C148   1.281       .  A
O139       Ni144   1.925       .  S
O139        C148   1.283       .  A
O140       Ni144   1.929       .  S
O140        C147   1.282       .  A
O141       Ni144   1.909       .  S
O141        C146   1.279       .  A
O142       Ni144   1.905       .  S
O142        C145   1.280       .  A
Ni143      Ni144   2.387       .  S
C146        C338   1.478       .  S
C148        C348   1.485       .  S
O149       Ni157   1.927       .  S
O149        C159   1.281       .  A
O150       Ni157   1.920       .  S
O150        C160   1.281       .  A
O151       Ni157   1.908       .  S
O151        C161   1.281       .  A
O152       Ni157   1.911       .  S
O152        C162   1.280       .  A
O153       Ni158   1.906       .  S
O153        C162   1.280       .  A
O154       Ni158   1.916       .  S
O154        C161   1.278       .  A
O155       Ni158   1.935       .  S
O155        C160   1.284       .  A
O156       Ni158   1.929       .  S
O156        C159   1.284       .  A
Ni157      Ni158   2.388       .  S
C159        C194   1.485       .  S
C160        C318   1.481       .  S
C161        C170   1.466       .  S
C162        C328   1.476       .  S
C163        C188   1.496       .  S
C163        C164   1.517       .  S
C163        C169   1.519   1_545  S
C163        C167   1.544       .  S
C164        H171   1.080       .  S
C164        C165   1.351       .  D
C165       C1534   1.542   1_545  S
C166        C170   1.552       .  S
C166        C168   1.533       .  S
C166       C1533   1.541       .  S
C166        H172   1.111       .  S
C167        H629   1.086       .  S
C167       C1536   1.371   1_545  D
C168       C1535   1.371       .  D
C169        H174   1.087       .  S
C169       C1538   1.366       .  D
C170       C1537   1.366       .  D
H173       C1079   1.086       .  S
O175       Ni183   1.910       .  S
O175        C185   1.280       .  A
O176       Ni183   1.913       .  S
O176        C186   1.279       .  A
O177       Ni183   1.911       .  S
O177        C187   1.279       .  A
O178       Ni183   1.914       .  S
O178        C188   1.282       .  A
O179       Ni184   1.907       .  S
O179        C188   1.278       .  A
O180       Ni184   1.911       .  S
O180        C187   1.280       .  A
O181       Ni184   1.929       .  S
O181        C186   1.283       .  A
O182       Ni184   1.920       .  S
O182        C185   1.282       .  A
Ni183      Ni184   2.392       .  S
C185        C308   1.475       .  S
C186        C196   1.470       .  S
C187        C301   1.462       .  S
C189        C190   1.524       .  S
C189        C195   1.523       .  S
C189        C193   1.545       .  S
C190        H197   1.087       .  S
C190        C191   1.373       .  D
C191        C192   1.549       .  S
C192        C196   1.544       .  S
C192        C194   1.543       .  S
C192        H198   1.111       .  S
C193        H199   1.086       .  S
C193        C194   1.371       .  D
C195        H200   1.080       .  S
C195        C196   1.356       .  D
N201        C206   1.349   1_545  A
N201        C205   1.356       .  A
N201        H233   1.033       .  S
N202        C210   1.348       .  A
N202       C1577   1.350       .  A
N203        C208   1.356       .  A
N203        C207   1.358       .  A
N203        H234   1.041       .  S
N204        C212   1.356       .  A
N204       C1579   1.356       .  A
C205        C213   1.386   1_545  A
C205        C221   1.414       .  A
C206        C222   1.415   1_565  A
C206        C214   1.388       .  A
C207        C215   1.384       .  A
C207        C224   1.419       .  A
C208        C223   1.428       .  A
C208        C216   1.390       .  A
C209       N1570   1.350       .  A
C209        C221   1.418       .  A
C209        C217   1.390       .  A
C210        C224   1.407       .  A
C210        C218   1.385       .  A
C211       N1572   1.356   1_545  A
C211        C219   1.386       .  A
C211        C222   1.423       .  A
C212        C220   1.387       .  A
C212        C223   1.421       .  A
C213        C214   1.377       .  A
C213       H1137   1.081       .  S
C214       H1138   1.083       .  S
C215        C216   1.377       .  A
C215        H227   1.082       .  S
C216        H228   1.081       .  S
C217       C1586   1.365       .  A
C217        H229   1.080       .  S
C218       C1585   1.365       .  A
C218        H230   1.083       .  S
C219       C1588   1.372       .  A
C219        H231   1.081       .  S
C220       C1587   1.372       .  A
C220        H232   1.079       .  S
C221        C371   1.490       .  S
C222        C311   1.497       .  S
C223        C321   1.503       .  S
C224        C341   1.497       .  S
H225        C669   1.081       .  S
H226        C670   1.082       .  S
N235        C240   1.352       .  A
N235        C239   1.349       .  A
N235        H267   1.041       .  S
N236        C243   1.353       .  A
N236        C244   1.352       .  A
N237        C242   1.352       .  A
N237        C241   1.352       .  A
N237        H268   1.043       .  S
N238        C245   1.349       .  A
N238        C246   1.348       .  A
C239        C247   1.387       .  A
C239        C255   1.414       .  A
C240        C256   1.413       .  A
C240        C248   1.387       .  A
C241        C249   1.389       .  A
C241        C258   1.418       .  A
C242        C257   1.411       .  A
C242        C250   1.385       .  A
C243        C255   1.420       .  A
C243        C251   1.387       .  A
C244        C258   1.416       .  A
C244        C252   1.386       .  A
C245        C253   1.390       .  A
C245        C256   1.416       .  A
C246        C254   1.385       .  A
C246        C257   1.405       .  A
C247        C248   1.378       .  A
C247       H1171   1.082       .  S
C248       H1172   1.080       .  S
C249        C250   1.383       .  A
C249        H261   1.082       .  S
C250        H262   1.082       .  S
C251        C252   1.378       .  A
C251        H263   1.082       .  S
C252        H264   1.082       .  S
C253        C254   1.365       .  A
C253        H265   1.080       .  S
C254        H266   1.083       .  S
C255        C358   1.500       .  S
C256        C298   1.485       .  S
C257        C331   1.484       .  S
C258        C351   1.502       .  S
H259        C703   1.082       .  S
H260        C704   1.080       .  S
O269       Ni277   1.907       .  S
O269        C279   1.280       .  A
O270       Ni277   1.913       .  S
O270        C280   1.277       .  A
O271       Ni277   1.912       .  S
O271        C281   1.281       .  A
O272       Ni277   1.918       .  S
O272        C282   1.282       .  A
O273       Ni278   1.923       .  S
O273        C282   1.282       .  A
O274       Ni278   1.913       .  S
O274        C281   1.280       .  A
O275       Ni278   1.934       .  S
O275        C280   1.285       .  A
O276       Ni278   1.943       .  S
O276        C279   1.286       .  A
Ni277      Ni278   2.387       .  S
C279        C428   1.489       .  S
C281        C391   1.476       .  S
O283       Ni291   1.916       .  S
O283        C293   1.281       .  A
O284       Ni291   1.916       .  S
O284        C294   1.281       .  A
O285       Ni291   1.935       .  S
O285        C295   1.283       .  A
O286       Ni291   1.926       .  S
O286        C296   1.284       .  A
O287       Ni292   1.894       .  S
O287        C296   1.276       .  A
O288       Ni292   1.894       .  S
O288        C295   1.278       .  A
O289       Ni292   1.921       .  S
O289        C294   1.283       .  A
O290       Ni292   1.917       .  S
O290        C293   1.280       .  A
Ni291      Ni292   2.387       .  S
C294        C421   1.483       .  S
C296        C398   1.476       .  S
C297        C302   1.406       .  A
C297        C754   1.412       .  A
C297        F304   1.357       .  S
C298        C299   1.401       .  A
C298       C1209   1.412       .  A
C299        C300   1.384       .  A
C299        F306   1.359       .  S
C300       C1213   1.401       .  A
C300        F305   1.355       .  S
C301        C302   1.403       .  A
C301        C756   1.402       .  A
C302        F303   1.357       .  S
C307        C308   1.406       .  A
C307        C768   1.392       .  A
C307        F314   1.359       .  S
C308        C309   1.406       .  A
C309        C766   1.402   1_545  A
C309        F316   1.358   1_545  S
C310        C311   1.410   1_565  A
C310       C1221   1.403   1_565  A
C310        F315   1.358       .  S
C311        C312   1.408       .  A
C312       C1219   1.392       .  A
C312        F313   1.358       .  S
C317        C318   1.406       .  A
C317        C322   1.411       .  A
C317        F324   1.357       .  S
C318        C319   1.403       .  A
C319        C320   1.394       .  A
C319        F326   1.355       .  S
C320        C321   1.406       .  A
C320        F325   1.358       .  S
C321        C322   1.415       .  A
C322        F323   1.358       .  S
C327        C328   1.410       .  A
C327        C332   1.389       .  A
C327        F334   1.359       .  S
C328        C329   1.410       .  A
C329        C330   1.404       .  A
C329        F336   1.357       .  S
C330        C331   1.404       .  A
C330        F335   1.357       .  S
C331        C332   1.404       .  A
C332        F333   1.359       .  S
C337        C338   1.410       .  A
C337        C342   1.406       .  A
C337        F344   1.357       .  S
C338        C339   1.405       .  A
C339        C340   1.389       .  A
C339        F346   1.357       .  S
C340        C341   1.409       .  A
C340        F345   1.359       .  S
C341        C342   1.407       .  A
C342        F343   1.357       .  S
C347        C348   1.408       .  A
C347        C352   1.395       .  A
C347        F354   1.357       .  S
C348        C349   1.408       .  A
C349        C350   1.405       .  A
C349        F356   1.358       .  S
C350        C351   1.412       .  A
C350        F355   1.357       .  S
C351        C352   1.409       .  A
C352        F353   1.358       .  S
C357        C358   1.411       .  A
C357       C1274   1.399   1_554  A
C357        F364   1.358       .  S
C358        C359   1.408       .  A
C359       C1272   1.400       .  A
C359        F366   1.358       .  S
C360        C361   1.407       .  A
C360        C815   1.401       .  A
C360        F365   1.358       .  S
C361        C362   1.408       .  A
C362        C813   1.399       .  A
C362        F363   1.358       .  S
C367        C372   1.385       .  A
C367       C1280   1.401       .  A
C367        F374   1.351       .  S
C368        C369   1.405       .  A
C368        C823   1.402       .  A
C369        C370   1.411   1_545  A
C369        F376   1.357   1_545  S
C370        C827   1.412   1_565  A
C370        F375   1.357       .  S
C371        C372   1.400       .  A
C371       C1282   1.413   1_545  A
C372        F373   1.359       .  S
C377        C378   1.408       .  A
C377       C1294   1.402       .  A
C377        F384   1.358       .  S
C378        C379   1.407       .  A
C379       C1292   1.393   1_554  A
C379        F386   1.358   1_455  S
C380        C381   1.407       .  A
C380        C835   1.394       .  A
C380        F385   1.356       .  S
C381        C382   1.410       .  A
C382        C833   1.401       .  A
C382        F383   1.358       .  S
C387        C388   1.405       .  A
C387        C392   1.401       .  A
C387        F394   1.358       .  S
C388        C389   1.406       .  A
C389        C390   1.390       .  A
C389        F396   1.359       .  S
C390        C391   1.406       .  A
C390        F395   1.357       .  S
C391        C392   1.409       .  A
C392        F393   1.358       .  S
C397        C398   1.410       .  A
C397        C402   1.391       .  A
C397        F404   1.358       .  S
C398        C855   1.404       .  A
C399        C400   1.401       .  A
C399       C1310   1.404   1_554  A
C399        F406   1.357       .  S
C400        C401   1.412       .  A
C400        F405   1.358       .  S
C401       C1314   1.404       .  A
C402        C857   1.404       .  A
C402        F403   1.358       .  S
C407        C408   1.410       .  A
C407        C868   1.390       .  A
C407        F414   1.358       .  S
C408        C865   1.402       .  A
C409        C410   1.399       .  A
C409       C1320   1.402   1_554  A
C409        F416   1.357       .  S
C410        C411   1.412       .  A
C410        F415   1.358       .  S
C411        C412   1.404       .  A
C412       C1319   1.390   1_554  A
C412        F413   1.358   1_455  S
C417        C422   1.403       .  A
C417        C874   1.409       .  A
C417        F424   1.358       .  S
C418        C419   1.408       .  A
C418       C1329   1.408       .  A
C419        C420   1.395   1_554  A
C419        F426   1.359       .  S
C420       C1333   1.407   1_556  A
C420        F425   1.356       .  S
C421        C422   1.408       .  A
C421        C876   1.407       .  A
C422        F423   1.358       .  S
C427        C428   1.410       .  A
C427        C432   1.411   1_545  A
C427        F434   1.357       .  S
C428        C429   1.409       .  A
C429        C430   1.392       .  A
C429        F436   1.357       .  S
C430        C431   1.405       .  A
C430        F435   1.359       .  S
C431        C432   1.411   1_545  A
C432        F433   1.358       .  S
C437        C438   1.406       .  A
C437        C442   1.390       .  A
C437        F444   1.358       .  S
C438        C439   1.407       .  A
C439        C440   1.405       .  A
C439        F446   1.357       .  S
C440        C441   1.411       .  A
C440        F445   1.357       .  S
C441        C442   1.408       .  A
C442        F443   1.358       .  S
C447        C448   1.410   1_565  A
C447        C452   1.402       .  A
C447        F454   1.358       .  S
C448        C449   1.406       .  A
C449        C450   1.394       .  A
C449        F456   1.358       .  S
C450        C451   1.409   1_545  A
C450        F455   1.358       .  S
C451        C452   1.404       .  A
C452        F453   1.358       .  S
O457       Ni465   1.911       .  S
O457        C467   1.279       .  A
O458       Ni465   1.921       .  S
O458        C468   1.282       .  A
O459       Ni465   1.928       .  S
O459        C469   1.283       .  A
O460       Ni465   1.925       .  S
O460        C470   1.283       .  A
O461       Ni466   1.907       .  S
O461        C470   1.276       .  A
O462       Ni466   1.899       .  S
O462        C469   1.278       .  A
O463       Ni466   1.929       .  S
O463        C468   1.284       .  A
O464       Ni466   1.920       .  S
O464        C467   1.283       .  A
Ni465      Ni466   2.389       .  S
C467        C904   1.481       .  S
C468        C645   1.515       .  S
C469        C894   1.475       .  S
C470        C621   1.463       .  S
N471        C476   1.353       .  A
N471        C475   1.352       .  A
N471        H503   1.044       .  S
N472       C1847   1.348       .  A
N472        C480   1.352       .  A
N473        C478   1.349       .  A
N473        C477   1.346       .  A
N473        H504   1.044       .  S
N474       C1849   1.345   1_655  A
N474        C482   1.346   1_655  A
C475        C483   1.388   1_565  A
C475        C491   1.417       .  A
C476        C492   1.416   1_655  A
C476        C484   1.387   1_565  A
C477        C485   1.386       .  A
C477        C494   1.409       .  A
C478        C493   1.412   1_655  A
C478        C486   1.388       .  A
C479       N1840   1.348       .  A
C479        C491   1.413       .  A
C479        C487   1.386       .  A
C480        C494   1.416       .  A
C480        C488   1.386       .  A
C481       N1842   1.345   1_455  A
C481        C489   1.386       .  A
C481        C492   1.404       .  A
C482        C490   1.387       .  A
C482        C493   1.409       .  A
C483        C484   1.382       .  A
C483        H495   1.082       .  S
C484        H496   1.082       .  S
C485        C486   1.381       .  A
C487       C1856   1.380       .  A
C487        H499   1.082       .  S
C488       C1855   1.380       .  A
C488        H500   1.082       .  S
C489       C1858   1.377       .  A
C489        H501   1.082       .  S
C490       C1857   1.377       .  A
C490        H502   1.082       .  S
C491        C887   1.496   1_565  S
C492        C907   1.492       .  S
C493        C867   1.490       .  S
C494        C874   1.495       .  S
H497        C941   1.082       .  S
H498        C942   1.082       .  S
N505        C510   1.349       .  A
N505        C509   1.347       .  A
N505        H537   1.043       .  S
N506        C513   1.349       .  A
N506        C514   1.350       .  A
N507        C512   1.352   1_655  A
N507        C511   1.348   1_655  A
N507        H538   1.043       .  S
N508        C515   1.345       .  A
N508        C516   1.344       .  A
C509        C517   1.386       .  A
C509        C525   1.406       .  A
C510        C526   1.414       .  A
C510        C518   1.388       .  A
C511        C519   1.384       .  A
C511        C528   1.408       .  A
C512        C527   1.418       .  A
C512        C520   1.389       .  A
C513        C525   1.411       .  A
C513        C521   1.386       .  A
C514        C528   1.411   1_655  A
C514        C522   1.387       .  A
C515        C523   1.387       .  A
C515        C526   1.411       .  A
C516        C524   1.386       .  A
C516        C527   1.407   1_655  A
C517        C518   1.379       .  A
C517        H529   1.082       .  S
C518        H530   1.082       .  S
C519        C520   1.381       .  A
C519        H531   1.082       .  S
C520        H532   1.082       .  S
C521        C522   1.379       .  A
C521        H533   1.082       .  S
C522        H534   1.082       .  S
C523        C524   1.380       .  A
C525        C844   1.485       .  S
C526        C857   1.491       .  S
C527        C834   1.492       .  S
C528        C897   1.492       .  S
H535        C979   1.082       .  S
H536        C980   1.082       .  S
O539       Ni547   1.892       .  S
O539        C549   1.276       .  A
O540       Ni547   1.890       .  S
O540        C550   1.275       .  A
O541       Ni547   1.920       .  S
O541        C551   1.281       .  A
O542       Ni547   1.923       .  S
O542        C552   1.284       .  A
O543       Ni548   1.911       .  S
O543        C552   1.280       .  A
O544       Ni548   1.910       .  S
O544        C551   1.279       .  A
O545       Ni548   1.928       .  S
O545        C550   1.285       .  A
O546       Ni548   1.940       .  S
O546        C549   1.285       .  A
Ni547      Ni548   2.387       .  S
C549        C647   1.473       .  S
C550        C864   1.473       .  S
C551        C624   1.470       .  S
C552        C837   1.481       .  S
C553        C588   1.510       .  S
C553        C554   1.520       .  S
C553        C559   1.522       .  S
C553        C557   1.545       .  S
C554        H561   1.080       .  S
C554        C555   1.355       .  D
C555        C736   1.474       .  S
C555        C556   1.546       .  S
C556        C560   1.554       .  S
C556        C558   1.537       .  S
C556        H562   1.111       .  S
C557       H1019   1.086       .  S
C557        C558   1.371       .  D
C558        C749   1.475       .  S
C559        H564   1.087       .  S
C559        C560   1.371       .  D
C560        C601   1.478       .  S
C565        C738   1.513       .  S
C565        C566   1.518       .  S
C565        C571   1.526       .  S
C565        C569   1.542       .  S
C566        H573   1.087   1_545  S
C566       C1935   1.370   1_545  D
C567        C751   1.472       .  S
C567        C568   1.553       .  S
C567       C1934   1.370       .  D
C568       C1940   1.547       .  S
C568        C570   1.538       .  S
C568        H574   1.111       .  S
C569        H575   1.086       .  S
C569       C1938   1.369   1_545  D
C570        C603   1.478       .  S
C570       C1937   1.369       .  D
C571        H576   1.080       .  S
C571        C572   1.361       .  D
C572        C590   1.477       .  S
C572       C1936   1.546   1_545  S
O577       Ni585   1.921       .  S
O577        C587   1.283       .  A
O578       Ni585   1.917       .  S
O578        C588   1.281       .  A
O579       Ni585   1.911       .  S
O579        C589   1.281       .  A
O580       Ni585   1.925       .  S
O580        C590   1.281       .  A
O581       Ni586   1.926       .  S
O581        C590   1.282       .  A
O582       Ni586   1.925       .  S
O582        C589   1.283       .  A
O583       Ni586   1.925       .  S
O583        C588   1.284       .  A
O584       Ni586   1.920       .  S
O584        C587   1.280       .  A
Ni585      Ni586   2.388       .  S
C587        C824   1.474       .  S
C589        C817   1.482       .  S
O591       Ni599   1.934       .  S
O591        C601   1.282       .  A
O592       Ni599   1.918       .  S
O592        C602   1.284       .  A
O593       Ni599   1.912       .  S
O593        C603   1.280       .  A
O594       Ni599   1.913       .  S
O594        C604   1.281       .  A
O595       Ni600   1.927       .  S
O595        C604   1.283       .  A
O596       Ni600   1.930       .  S
O596        C603   1.282       .  A
O597       Ni600   1.910       .  S
O597        C602   1.278       .  A
O598       Ni600   1.905       .  S
O598        C601   1.280       .  A
Ni599      Ni600   2.387       .  S
C602        C794   1.478       .  S
C604        C804   1.486       .  S
O605       Ni613   1.924       .  S
O605        C615   1.280       .  A
O606       Ni613   1.918       .  S
O606        C616   1.280       .  A
O607       Ni613   1.908       .  S
O607        C617   1.281       .  A
O608       Ni613   1.911       .  S
O608        C618   1.280       .  A
O609       Ni614   1.905       .  S
O609        C618   1.280       .  A
O610       Ni614   1.915       .  S
O610        C617   1.278       .  A
O611       Ni614   1.934       .  S
O611        C616   1.284       .  A
O612       Ni614   1.928       .  S
O612        C615   1.284       .  A
Ni613      Ni614   2.389       .  S
C615        C650   1.482       .  S
C616        C774   1.479       .  S
C617        C626   1.464       .  S
C618        C784   1.475       .  S
C619        C644   1.496       .  S
C619        C620   1.517       .  S
C619        C625   1.520   1_545  S
C619        C623   1.545       .  S
C620        H627   1.080       .  S
C620        C621   1.350       .  D
C621       C1990   1.541   1_545  S
C622       C1989   1.540       .  S
C622        C626   1.551       .  S
C622        C624   1.532       .  S
C622        H628   1.111       .  S
C623       H1085   1.086       .  S
C623       C1992   1.371   1_545  D
C624       C1991   1.371       .  D
C625        H630   1.087       .  S
C625       C1994   1.366       .  D
C626       C1993   1.366       .  D
O631       Ni639   1.910       .  S
O631        C641   1.280       .  A
O632       Ni639   1.914       .  S
O632        C642   1.279       .  A
O633       Ni639   1.913       .  S
O633        C643   1.279       .  A
O634       Ni639   1.914       .  S
O634        C644   1.282       .  A
O635       Ni640   1.907       .  S
O635        C644   1.278       .  A
O636       Ni640   1.912       .  S
O636        C643   1.281       .  A
O637       Ni640   1.930       .  S
O637        C642   1.283       .  A
O638       Ni640   1.919       .  S
O638        C641   1.282       .  A
Ni639      Ni640   2.392       .  S
C641        C764   1.475       .  S
C642        C652   1.471       .  S
C643        C757   1.464       .  S
C645        C646   1.526       .  S
C645        C651   1.523       .  S
C645        C649   1.544       .  S
C646        H653   1.087       .  S
C646        C647   1.374       .  D
C647        C648   1.548       .  S
C648        C652   1.543       .  S
C648        C650   1.542       .  S
C648        H654   1.111       .  S
C649        H655   1.086       .  S
C649        C650   1.370       .  D
C651        H656   1.080       .  S
C651        C652   1.357       .  D
N657        C662   1.348   1_545  A
N657        C661   1.354   1_545  A
N657        H689   1.039       .  S
N658       C2033   1.350       .  A
N658        C666   1.348       .  A
N659        C664   1.356       .  A
N659        C663   1.357       .  A
N659        H690   1.041       .  S
N660       C2035   1.356       .  A
N660        C668   1.355       .  A
C661        C669   1.386       .  A
C661        C677   1.414   1_565  A
C662        C678   1.415   1_565  A
C662        C670   1.388       .  A
C663        C671   1.384       .  A
C663        C680   1.418       .  A
C664        C679   1.427       .  A
C664        C672   1.390       .  A
C665       N2026   1.350       .  A
C665        C677   1.418       .  A
C665        C673   1.390       .  A
C666        C680   1.407       .  A
C666        C674   1.385       .  A
C667       N2028   1.356   1_545  A
C667        C675   1.386       .  A
C667        C678   1.423       .  A
C668        C676   1.387       .  A
C668        C679   1.420       .  A
C669        C670   1.378       .  A
C671        C672   1.377       .  A
C671        H683   1.082       .  S
C672        H684   1.081       .  S
C673       C2042   1.365       .  A
C673        H685   1.080       .  S
C674       C2041   1.365       .  A
C674        H686   1.083       .  S
C675       C2044   1.372       .  A
C675        H687   1.081       .  S
C676       C2043   1.372       .  A
C676        H688   1.079       .  S
C677        C827   1.490       .  S
C678        C767   1.496       .  S
C679        C777   1.502       .  S
C680        C797   1.495       .  S
H681       C1125   1.081       .  S
H682       C1126   1.082       .  S
N691        C696   1.352       .  A
N691        C695   1.349       .  A
N691        H723   1.041       .  S
N692        C699   1.354       .  A
N692        C700   1.352       .  A
N693        C698   1.352       .  A
N693        C697   1.352       .  A
N693        H724   1.043       .  S
N694        C701   1.349       .  A
N694        C702   1.348       .  A
C695        C703   1.387       .  A
C695        C711   1.414       .  A
C696        C712   1.413       .  A
C696        C704   1.387       .  A
C697        C705   1.389       .  A
C697        C714   1.418       .  A
C698        C713   1.412       .  A
C698        C706   1.385       .  A
C699        C711   1.420       .  A
C699        C707   1.387       .  A
C700        C714   1.417       .  A
C700        C708   1.386       .  A
C701        C709   1.390       .  A
C701        C712   1.415       .  A
C702        C710   1.385       .  A
C702        C713   1.405       .  A
C703        C704   1.378       .  A
C705        C706   1.383       .  A
C705        H717   1.082       .  S
C706        H718   1.082       .  S
C707        C708   1.378       .  A
C707        H719   1.082       .  S
C708        H720   1.082       .  S
C709        C710   1.365       .  A
C709        H721   1.080       .  S
C710        H722   1.083       .  S
C711        C814   1.500       .  S
C712        C754   1.484       .  S
C713        C787   1.485       .  S
C714        C807   1.502       .  S
H715       C1159   1.082       .  S
H716       C1160   1.081       .  S
O725       Ni733   1.907       .  S
O725        C735   1.280       .  A
O726       Ni733   1.914       .  S
O726        C736   1.278       .  A
O727       Ni733   1.914       .  S
O727        C737   1.282       .  A
O728       Ni733   1.920       .  S
O728        C738   1.282       .  A
O729       Ni734   1.924       .  S
O729        C738   1.282       .  A
O730       Ni734   1.915       .  S
O730        C737   1.280       .  A
O731       Ni734   1.933       .  S
O731        C736   1.285       .  A
O732       Ni734   1.941       .  S
O732        C735   1.285       .  A
Ni733      Ni734   2.387       .  S
C735        C884   1.487       .  S
C737        C847   1.478       .  S
O739       Ni747   1.918       .  S
O739        C749   1.281       .  A
O740       Ni747   1.916       .  S
O740        C750   1.281       .  A
O741       Ni747   1.936       .  S
O741        C751   1.283       .  A
O742       Ni747   1.926       .  S
O742        C752   1.284       .  A
O743       Ni748   1.894       .  S
O743        C752   1.276       .  A
O744       Ni748   1.894       .  S
O744        C751   1.278       .  A
O745       Ni748   1.922       .  S
O745        C750   1.283       .  A
O746       Ni748   1.920       .  S
O746        C749   1.281       .  A
Ni747      Ni748   2.386       .  S
C750        C877   1.484       .  S
C752        C854   1.477       .  S
C753       C1210   1.412       .  A
C753        C758   1.407       .  A
C753        F760   1.357       .  S
C754        C755   1.401       .  A
C755        C756   1.384       .  A
C755        F762   1.359       .  S
C756        F761   1.355       .  S
C757       C1212   1.402       .  A
C757        C758   1.403       .  A
C758        F759   1.357       .  S
C763        C764   1.406       .  A
C763       C1224   1.392       .  A
C763        F770   1.359       .  S
C764        C765   1.406       .  A
C765       C1222   1.403   1_545  A
C765        F772   1.358   1_545  S
C766        C767   1.409   1_565  A
C766        F771   1.358       .  S
C767        C768   1.408       .  A
C768        F769   1.358       .  S
C773        C774   1.405       .  A
C773        C778   1.411       .  A
C773        F780   1.357       .  S
C774        C775   1.403       .  A
C775        C776   1.394       .  A
C775        F782   1.355       .  S
C776        C777   1.406       .  A
C776        F781   1.358       .  S
C777        C778   1.415       .  A
C778        F779   1.358       .  S
C783        C784   1.410       .  A
C783        C788   1.389       .  A
C783        F790   1.359       .  S
C784        C785   1.409       .  A
C785        C786   1.404       .  A
C785        F792   1.357       .  S
C786        C787   1.404       .  A
C786        F791   1.357       .  S
C787        C788   1.404       .  A
C788        F789   1.359       .  S
C793        C794   1.410       .  A
C793        C798   1.407       .  A
C793        F800   1.357       .  S
C794        C795   1.404       .  A
C795        C796   1.388       .  A
C795        F802   1.356       .  S
C796        C797   1.407       .  A
C796        F801   1.359       .  S
C797        C798   1.407       .  A
C798        F799   1.357       .  S
C803        C804   1.408       .  A
C803        C808   1.395       .  A
C803        F810   1.357       .  S
C804        C805   1.408       .  A
C805        C806   1.405       .  A
C805        F812   1.358       .  S
C806        C807   1.412       .  A
C806        F811   1.357       .  S
C807        C808   1.408       .  A
C808        F809   1.358       .  S
C813        C814   1.411       .  A
C813        F820   1.358       .  S
C814        C815   1.408       .  A
C815        F822   1.358       .  S
C816       C1271   1.400       .  A
C816        C817   1.407       .  A
C816        F821   1.358       .  S
C817        C818   1.409       .  A
C818       C1269   1.399       .  A
C818        F819   1.358       .  S
C823        C828   1.386       .  A
C823        F830   1.352       .  S
C824       C1279   1.401       .  A
C824        C825   1.406       .  A
C825        C826   1.412   1_545  A
C825        F832   1.357   1_545  S
C826       C1283   1.413   1_565  A
C826        F831   1.357       .  S
C827        C828   1.401       .  A
C828        F829   1.359       .  S
C833        C834   1.408       .  A
C833        F840   1.358       .  S
C834        C835   1.407       .  A
C835        F842   1.358   1_455  S
C836       C1291   1.394       .  A
C836        C837   1.407       .  A
C836        F841   1.356       .  S
C837        C838   1.409       .  A
C838       C1289   1.401       .  A
C838        F839   1.358       .  S
C843        C844   1.405       .  A
C843        C848   1.402       .  A
C843        F850   1.358       .  S
C844        C845   1.406       .  A
C845        C846   1.391       .  A
C845        F852   1.359       .  S
C846        C847   1.406       .  A
C846        F851   1.357       .  S
C847        C848   1.409       .  A
C848        F849   1.357       .  S
C853        C854   1.411       .  A
C853        C858   1.391       .  A
C853        F860   1.358       .  S
C854       C1311   1.404       .  A
C855        C856   1.401       .  A
C855        F862   1.358       .  S
C856        C857   1.412       .  A
C856        F861   1.358       .  S
C858       C1313   1.404       .  A
C858        F859   1.358       .  S
C863        C864   1.410       .  A
C863       C1324   1.390       .  A
C863        F870   1.358       .  S
C864       C1321   1.402       .  A
C865        C866   1.399       .  A
C865        F872   1.357       .  S
C866        C867   1.412       .  A
C866        F871   1.358       .  S
C867        C868   1.404       .  A
C868        F869   1.358   1_455  S
C873       C1330   1.408       .  A
C873        C878   1.403       .  A
C873        F880   1.357       .  S
C874        C875   1.408       .  A
C875        C876   1.395       .  A
C875        F882   1.359       .  S
C876        F881   1.356       .  S
C877       C1332   1.407       .  A
C877        C878   1.409       .  A
C878        F879   1.357       .  S
C883        C884   1.409       .  A
C883        C888   1.410   1_545  A
C883        F890   1.357       .  S
C884        C885   1.408       .  A
C885        C886   1.391       .  A
C885        F892   1.357       .  S
C886        C887   1.405       .  A
C886        F891   1.359       .  S
C887        C888   1.411   1_545  A
C888        F889   1.358       .  S
C893        C894   1.406       .  A
C893        C898   1.390       .  A
C893        F900   1.359       .  S
C894        C895   1.406       .  A
C895        C896   1.405       .  A
C895        F902   1.357       .  S
C896        C897   1.410       .  A
C896        F901   1.357       .  S
C897        C898   1.408       .  A
C898        F899   1.359       .  S
C903        C904   1.411   1_565  A
C903        C908   1.402       .  A
C903        F910   1.358       .  S
C904        C905   1.406       .  A
C905        C906   1.393       .  A
C905        F912   1.358       .  S
C906        C907   1.409   1_545  A
C906        F911   1.358       .  S
C907        C908   1.405       .  A
C908        F909   1.358       .  S
O913       Ni921   1.911       .  S
O913        C923   1.279       .  A
O914       Ni921   1.921       .  S
O914        C924   1.282       .  A
O915       Ni921   1.929       .  S
O915        C925   1.283       .  A
O916       Ni921   1.927       .  S
O916        C926   1.284       .  A
O917       Ni922   1.910       .  S
O917        C926   1.277       .  A
O918       Ni922   1.900       .  S
O918        C925   1.278       .  A
O919       Ni922   1.928       .  S
O919        C924   1.284       .  A
O920       Ni922   1.920       .  S
O920        C923   1.283       .  A
Ni921      Ni922   2.388       .  S
C923       C1360   1.481       .  S
C924       C1101   1.515       .  S
C925       C1350   1.476       .  S
C926       C1077   1.466       .  S
N927        C932   1.353       .  A
N927        C931   1.353       .  A
N927        H959   1.044       .  S
N928       C2303   1.348       .  A
N928        C936   1.352       .  A
N929        C934   1.349       .  A
N929        C933   1.346       .  A
N929        H960   1.044       .  S
N930       C2305   1.344   1_655  A
N930        C938   1.345   1_655  A
C931        C939   1.388   1_565  A
C931        C947   1.417       .  A
C932        C948   1.417   1_655  A
C932        C940   1.387   1_565  A
C933        C941   1.386       .  A
C933        C950   1.408       .  A
C934        C949   1.412   1_655  A
C934        C942   1.388       .  A
C935       N2296   1.348       .  A
C935        C947   1.413       .  A
C935        C943   1.386       .  A
C936        C950   1.417       .  A
C936        C944   1.386       .  A
C937       N2298   1.344   1_455  A
C937        C945   1.386       .  A
C937        C948   1.404       .  A
C938        C946   1.387       .  A
C938        C949   1.409       .  A
C939        C940   1.382       .  A
C939        H951   1.082       .  S
C940        H952   1.082       .  S
C941        C942   1.381       .  A
C943       C2312   1.381       .  A
C943        H955   1.082       .  S
C944       C2311   1.381       .  A
C944        H956   1.082       .  S
C945       C2314   1.377       .  A
C945        H957   1.082       .  S
C946       C2313   1.377       .  A
C946        H958   1.082       .  S
C947       C1343   1.497   1_565  S
C948       C1363   1.491       .  S
C949       C1323   1.490       .  S
C950       C1330   1.495       .  S
N961        C966   1.349       .  A
N961        C965   1.347       .  A
N961        H993   1.043       .  S
N962        C969   1.349       .  A
N962        C970   1.350       .  A
N963        C968   1.352   1_655  A
N963        C967   1.348   1_655  A
N963        H994   1.043       .  S
N964        C971   1.346       .  A
N964        C972   1.343       .  A
C965        C973   1.386       .  A
C965        C981   1.405       .  A
C966        C982   1.414       .  A
C966        C974   1.388       .  A
C967        C975   1.384       .  A
C967        C984   1.409       .  A
C968        C983   1.418       .  A
C968        C976   1.389       .  A
C969        C981   1.411       .  A
C969        C977   1.386       .  A
C970        C984   1.411   1_655  A
C970        C978   1.387       .  A
C971        C979   1.387       .  A
C971        C982   1.411       .  A
C972        C980   1.386       .  A
C972        C983   1.407   1_655  A
C973        C974   1.379       .  A
C973        H985   1.082       .  S
C974        H986   1.082       .  S
C975        C976   1.382       .  A
C975        H987   1.082       .  S
C976        H988   1.082       .  S
C977        C978   1.378       .  A
C977        H989   1.082       .  S
C978        H990   1.082       .  S
C979        C980   1.380       .  A
C981       C1300   1.484       .  S
C982       C1313   1.492       .  S
C983       C1290   1.491       .  S
C984       C1353   1.493       .  S
O995      Ni1003   1.892       .  S
O995       C1005   1.276       .  A
O996      Ni1003   1.890       .  S
O996       C1006   1.275       .  A
O997      Ni1003   1.919       .  S
O997       C1007   1.281       .  A
O998      Ni1003   1.923       .  S
O998       C1008   1.284       .  A
O999      Ni1004   1.911       .  S
O999       C1008   1.280       .  A
O1000     Ni1004   1.910       .  S
O1000      C1007   1.279       .  A
O1001     Ni1004   1.928       .  S
O1001      C1006   1.285       .  A
O1002     Ni1004   1.940       .  S
O1002      C1005   1.285       .  A
Ni1003    Ni1004   2.387       .  S
C1005      C1103   1.473       .  S
C1006      C1320   1.473       .  S
C1007      C1080   1.470       .  S
C1008      C1293   1.482       .  S
C1009      C1044   1.509       .  S
C1009      C1010   1.519       .  S
C1009      C1015   1.524       .  S
C1009      C1013   1.544       .  S
C1010      H1017   1.080       .  S
C1010      C1011   1.354       .  D
C1011      C1192   1.473       .  S
C1011      C1012   1.546       .  S
C1012      C1016   1.555       .  S
C1012      C1014   1.536       .  S
C1012      H1018   1.111       .  S
C1013      C1014   1.370       .  D
C1014      C1205   1.473       .  S
C1015      H1020   1.087       .  S
C1015      C1016   1.372       .  D
C1016      C1057   1.480       .  S
C1021      C1194   1.512       .  S
C1021      C1022   1.518       .  S
C1021      C1027   1.526       .  S
C1021      C1025   1.542       .  S
C1022      H1029   1.087   1_545  S
C1022      C2391   1.369   1_545  D
C1023      C1207   1.473       .  S
C1023      C1024   1.554       .  S
C1023      C2390   1.370       .  D
C1024      C2396   1.548       .  S
C1024      C1026   1.539       .  S
C1024      H1030   1.111       .  S
C1025      H1031   1.086       .  S
C1025      C2394   1.368   1_545  D
C1026      C1059   1.478       .  S
C1026      C2393   1.368       .  D
C1027      H1032   1.080       .  S
C1027      C1028   1.360       .  D
C1028      C1046   1.477       .  S
C1028      C2392   1.547   1_545  S
O1033     Ni1041   1.920   1_554  S
O1033      C1043   1.282   1_554  A
O1034     Ni1041   1.916       .  S
O1034      C1044   1.281       .  A
O1035     Ni1041   1.911       .  S
O1035      C1045   1.281       .  A
O1036     Ni1041   1.925       .  S
O1036      C1046   1.281       .  A
O1037     Ni1042   1.927       .  S
O1037      C1046   1.283       .  A
O1038     Ni1042   1.926       .  S
O1038      C1045   1.283       .  A
O1039     Ni1042   1.924       .  S
O1039      C1044   1.283       .  A
O1040     Ni1042   1.920       .  S
O1040      C1043   1.280       .  A
Ni1041    Ni1042   2.388       .  S
C1043      C1280   1.473   1_556  S
C1045      C1273   1.482       .  S
O1047     Ni1055   1.936       .  S
O1047      C1057   1.283       .  A
O1048     Ni1055   1.921       .  S
O1048      C1058   1.284       .  A
O1049     Ni1055   1.914       .  S
O1049      C1059   1.281       .  A
O1050     Ni1055   1.913       .  S
O1050      C1060   1.281       .  A
O1051     Ni1056   1.925       .  S
O1051      C1060   1.283       .  A
O1052     Ni1056   1.930       .  S
O1052      C1059   1.282       .  A
O1053     Ni1056   1.912       .  S
O1053      C1058   1.279       .  A
O1054     Ni1056   1.907       .  S
O1054      C1057   1.280       .  A
Ni1055    Ni1056   2.387       .  S
C1058      C1250   1.482       .  S
C1060      C1260   1.485       .  S
O1061     Ni1069   1.927       .  S
O1061      C1071   1.281       .  A
O1062     Ni1069   1.921       .  S
O1062      C1072   1.281       .  A
O1063     Ni1069   1.909       .  S
O1063      C1073   1.282       .  A
O1064     Ni1069   1.912       .  S
O1064      C1074   1.280       .  A
O1065     Ni1070   1.905       .  S
O1065      C1074   1.280       .  A
O1066     Ni1070   1.916       .  S
O1066      C1073   1.278       .  A
O1067     Ni1070   1.935       .  S
O1067      C1072   1.284       .  A
O1068     Ni1070   1.928       .  S
O1068      C1071   1.284       .  A
Ni1069    Ni1070   2.388       .  S
C1071      C1106   1.484       .  S
C1072      C1230   1.482       .  S
C1073      C1082   1.466       .  S
C1074      C1240   1.476       .  S
C1075      C1100   1.497       .  S
C1075      C1076   1.517       .  S
C1075      C1081   1.520   1_545  S
C1075      C1079   1.545       .  S
C1076      H1083   1.081       .  S
C1076      C1077   1.351       .  D
C1077      C2446   1.542   1_545  S
C1078      C2445   1.542       .  S
C1078      C1082   1.552       .  S
C1078      C1080   1.533       .  S
C1078      H1084   1.111       .  S
C1079      C2448   1.371   1_545  D
C1080      C2447   1.370       .  D
C1081      H1086   1.087       .  S
C1081      C2450   1.366       .  D
C1082      C2449   1.366       .  D
O1087     Ni1095   1.910       .  S
O1087      C1097   1.280       .  A
O1088     Ni1095   1.912       .  S
O1088      C1098   1.279       .  A
O1089     Ni1095   1.912       .  S
O1089      C1099   1.279       .  A
O1090     Ni1095   1.915       .  S
O1090      C1100   1.283       .  A
O1091     Ni1096   1.906       .  S
O1091      C1100   1.278       .  A
O1092     Ni1096   1.911   1_554  S
O1092      C1099   1.280   1_554  A
O1093     Ni1096   1.929       .  S
O1093      C1098   1.283       .  A
O1094     Ni1096   1.920   1_554  S
O1094      C1097   1.282   1_554  A
Ni1095    Ni1096   2.392       .  S
C1097      C1220   1.474   1_556  S
C1098      C1108   1.470       .  S
C1099      C1213   1.463   1_556  S
C1101      C1102   1.525       .  S
C1101      C1107   1.523       .  S
C1101      C1105   1.544       .  S
C1102      H1109   1.087       .  S
C1102      C1103   1.373       .  D
C1103      C1104   1.548       .  S
C1104      C1108   1.544       .  S
C1104      C1106   1.543       .  S
C1104      H1110   1.111       .  S
C1105      H1111   1.086       .  S
C1105      C1106   1.370       .  D
C1107      H1112   1.080       .  S
C1107      C1108   1.357       .  D
N1113      C1118   1.348   1_545  A
N1113      C1117   1.355       .  A
N1113      H1145   1.039       .  S
N1114      C2489   1.350       .  A
N1114      C1122   1.349       .  A
N1115      C1120   1.357       .  A
N1115      C1119   1.359       .  A
N1115      H1146   1.041       .  S
N1116      C2491   1.357       .  A
N1116      C1124   1.356       .  A
C1117      C1125   1.386   1_545  A
C1117      C1133   1.414       .  A
C1118      C1134   1.415   1_565  A
C1118      C1126   1.388       .  A
C1119      C1127   1.384       .  A
C1119      C1136   1.420       .  A
C1120      C1135   1.428       .  A
C1120      C1128   1.390       .  A
C1121      N2482   1.350       .  A
C1121      C1133   1.418       .  A
C1121      C1129   1.390       .  A
C1122      C1136   1.407       .  A
C1122      C1130   1.384       .  A
C1123      N2484   1.356       .  A
C1123      C1131   1.386       .  A
C1123      C1134   1.424       .  A
C1124      C1132   1.387       .  A
C1124      C1135   1.422       .  A
C1125      C1126   1.378       .  A
C1127      C1128   1.378       .  A
C1127      H1139   1.082       .  S
C1128      H1140   1.081       .  S
C1129      C2498   1.365       .  A
C1129      H1141   1.080       .  S
C1130      C2497   1.365       .  A
C1130      H1142   1.083       .  S
C1131      C2500   1.372       .  A
C1131      H1143   1.081       .  S
C1132      C2499   1.372       .  A
C1132      H1144   1.079       .  S
C1133      C1283   1.491       .  S
C1134      C1223   1.498       .  S
C1135      C1233   1.504       .  S
C1136      C1253   1.500       .  S
N1147      C1152   1.352       .  A
N1147      C1151   1.349       .  A
N1147      H1179   1.041       .  S
N1148      C1155   1.353       .  A
N1148      C1156   1.352       .  A
N1149      C1154   1.352       .  A
N1149      C1153   1.351       .  A
N1149      H1180   1.043       .  S
N1150      C1157   1.349       .  A
N1150      C1158   1.348       .  A
C1151      C1159   1.387       .  A
C1151      C1167   1.414       .  A
C1152      C1168   1.413       .  A
C1152      C1160   1.387       .  A
C1153      C1161   1.389       .  A
C1153      C1170   1.417       .  A
C1154      C1169   1.411       .  A
C1154      C1162   1.385       .  A
C1155      C1167   1.420       .  A
C1155      C1163   1.387       .  A
C1156      C1170   1.415       .  A
C1156      C1164   1.385       .  A
C1157      C1165   1.390       .  A
C1157      C1168   1.415       .  A
C1158      C1166   1.385       .  A
C1158      C1169   1.406       .  A
C1159      C1160   1.379       .  A
C1161      C1162   1.383       .  A
C1161      H1173   1.082       .  S
C1162      H1174   1.082       .  S
C1163      C1164   1.378       .  A
C1163      H1175   1.082       .  S
C1164      H1176   1.082       .  S
C1165      C1166   1.366       .  A
C1165      H1177   1.080       .  S
C1166      H1178   1.083       .  S
C1167      C1270   1.500       .  S
C1168      C1210   1.484       .  S
C1169      C1243   1.484       .  S
C1170      C1263   1.500       .  S
O1181     Ni1189   1.907       .  S
O1181      C1191   1.280       .  A
O1182     Ni1189   1.913       .  S
O1182      C1192   1.277       .  A
O1183     Ni1189   1.912       .  S
O1183      C1193   1.281       .  A
O1184     Ni1189   1.919       .  S
O1184      C1194   1.282       .  A
O1185     Ni1190   1.923       .  S
O1185      C1194   1.282       .  A
O1186     Ni1190   1.913       .  S
O1186      C1193   1.280       .  A
O1187     Ni1190   1.935       .  S
O1187      C1192   1.285       .  A
O1188     Ni1190   1.942       .  S
O1188      C1191   1.286       .  A
Ni1189    Ni1190   2.387       .  S
C1191      C1340   1.488       .  S
C1193      C1303   1.476       .  S
O1195     Ni1203   1.916       .  S
O1195      C1205   1.281       .  A
O1196     Ni1203   1.916       .  S
O1196      C1206   1.281       .  A
O1197     Ni1203   1.936       .  S
O1197      C1207   1.283       .  A
O1198     Ni1203   1.926       .  S
O1198      C1208   1.284       .  A
O1199     Ni1204   1.895       .  S
O1199      C1208   1.277       .  A
O1200     Ni1204   1.895       .  S
O1200      C1207   1.278       .  A
O1201     Ni1204   1.921       .  S
O1201      C1206   1.283       .  A
O1202     Ni1204   1.917       .  S
O1202      C1205   1.280       .  A
Ni1203    Ni1204   2.386       .  S
C1206      C1333   1.483   1_556  S
C1208      C1310   1.477       .  S
C1209      C1214   1.407       .  A
C1209      F1216   1.357       .  S
C1210      C1211   1.401       .  A
C1211      C1212   1.384       .  A
C1211      F1218   1.359       .  S
C1212      F1217   1.354       .  S
C1213      C1214   1.403       .  A
C1214      F1215   1.357   1_554  S
C1219      C1220   1.406       .  A
C1219      F1226   1.359   1_554  S
C1220      C1221   1.406       .  A
C1221      F1228   1.358   1_545  S
C1222      C1223   1.410   1_565  A
C1222      F1227   1.358       .  S
C1223      C1224   1.409       .  A
C1224      F1225   1.358       .  S
C1229      C1230   1.405       .  A
C1229      C1234   1.411       .  A
C1229      F1236   1.357       .  S
C1230      C1231   1.403       .  A
C1231      C1232   1.395       .  A
C1231      F1238   1.355       .  S
C1232      C1233   1.406       .  A
C1232      F1237   1.358       .  S
C1233      C1234   1.415       .  A
C1234      F1235   1.358       .  S
C1239      C1240   1.410       .  A
C1239      C1244   1.388       .  A
C1239      F1246   1.359       .  S
C1240      C1241   1.410       .  A
C1241      C1242   1.404       .  A
C1241      F1248   1.357       .  S
C1242      C1243   1.404       .  A
C1242      F1247   1.357       .  S
C1243      C1244   1.404       .  A
C1244      F1245   1.359       .  S
C1249      C1250   1.411       .  A
C1249      C1254   1.407       .  A
C1249      F1256   1.357       .  S
C1250      C1251   1.405       .  A
C1251      C1252   1.391       .  A
C1251      F1258   1.356       .  S
C1252      C1253   1.410       .  A
C1252      F1257   1.359       .  S
C1253      C1254   1.408       .  A
C1254      F1255   1.357       .  S
C1259      C1260   1.408       .  A
C1259      C1264   1.395       .  A
C1259      F1266   1.357       .  S
C1260      C1261   1.407       .  A
C1261      C1262   1.404       .  A
C1261      F1268   1.358       .  S
C1262      C1263   1.411       .  A
C1262      F1267   1.357       .  S
C1263      C1264   1.408       .  A
C1264      F1265   1.358       .  S
C1269      C1270   1.411       .  A
C1269      F1276   1.358       .  S
C1270      C1271   1.408       .  A
C1271      F1278   1.358       .  S
C1272      C1273   1.408   1_554  A
C1272      F1277   1.358       .  S
C1273      C1274   1.408       .  A
C1274      F1275   1.358       .  S
C1279      C1284   1.385       .  A
C1279      F1286   1.351       .  S
C1280      C1281   1.406       .  A
C1281      C1282   1.411   1_545  A
C1281      F1288   1.357   1_544  S
C1282      F1287   1.357       .  S
C1283      C1284   1.400       .  A
C1284      F1285   1.359       .  S
C1289      C1290   1.407       .  A
C1289      F1296   1.358       .  S
C1290      C1291   1.407       .  A
C1291      F1298   1.358   1_455  S
C1292      C1293   1.407       .  A
C1292      F1297   1.356       .  S
C1293      C1294   1.410   1_556  A
C1294      F1295   1.358       .  S
C1299      C1300   1.404       .  A
C1299      C1304   1.401       .  A
C1299      F1306   1.358       .  S
C1300      C1301   1.406       .  A
C1301      C1302   1.390       .  A
C1301      F1308   1.359       .  S
C1302      C1303   1.406       .  A
C1302      F1307   1.357       .  S
C1303      C1304   1.409       .  A
C1304      F1305   1.357       .  S
C1309      C1310   1.410       .  A
C1309      C1314   1.391   1_556  A
C1309      F1316   1.358       .  S
C1311      C1312   1.401       .  A
C1311      F1318   1.358       .  S
C1312      C1313   1.412       .  A
C1312      F1317   1.358       .  S
C1314      F1315   1.358       .  S
C1319      C1320   1.410       .  A
C1319      F1326   1.358       .  S
C1321      C1322   1.400       .  A
C1321      F1328   1.357       .  S
C1322      C1323   1.412       .  A
C1322      F1327   1.358       .  S
C1323      C1324   1.404       .  A
C1324      F1325   1.358   1_455  S
C1329      C1334   1.403       .  A
C1329      F1336   1.357       .  S
C1330      C1331   1.408       .  A
C1331      C1332   1.395       .  A
C1331      F1338   1.359       .  S
C1332      F1337   1.356       .  S
C1333      C1334   1.408       .  A
C1334      F1335   1.357       .  S
C1339      C1340   1.409       .  A
C1339      C1344   1.410   1_545  A
C1339      F1346   1.357       .  S
C1340      C1341   1.409       .  A
C1341      C1342   1.392       .  A
C1341      F1348   1.357       .  S
C1342      C1343   1.405       .  A
C1342      F1347   1.359       .  S
C1343      C1344   1.411   1_545  A
C1344      F1345   1.358       .  S
C1349      C1350   1.406       .  A
C1349      C1354   1.390       .  A
C1349      F1356   1.359       .  S
C1350      C1351   1.406       .  A
C1351      C1352   1.405       .  A
C1351      F1358   1.357       .  S
C1352      C1353   1.411       .  A
C1352      F1357   1.357       .  S
C1353      C1354   1.408       .  A
C1354      F1355   1.359       .  S
C1359      C1360   1.411   1_565  A
C1359      C1364   1.402       .  A
C1359      F1366   1.358       .  S
C1360      C1361   1.406       .  A
C1361      C1362   1.394       .  A
C1361      F1368   1.358       .  S
C1362      C1363   1.409   1_545  A
C1362      F1367   1.358       .  S
C1363      C1364   1.404       .  A
C1364      F1365   1.358       .  S
O1369     Ni1377   1.913       .  S
O1369      C1379   1.280       .  A
O1370     Ni1377   1.923       .  S
O1370      C1380   1.282       .  A
O1371     Ni1377   1.928       .  S
O1371      C1381   1.283       .  A
O1372     Ni1377   1.926       .  S
O1372      C1382   1.283       .  A
O1373     Ni1378   1.910       .  S
O1373      C1382   1.277       .  A
O1374     Ni1378   1.901       .  S
O1374      C1381   1.279       .  A
O1375     Ni1378   1.929       .  S
O1375      C1380   1.284       .  A
O1376     Ni1378   1.920       .  S
O1376      C1379   1.283       .  A
Ni1377    Ni1378   2.388       .  S
C1379      C1816   1.482       .  S
C1380      C1557   1.516       .  S
C1381      C1806   1.477       .  S
C1382      C1533   1.465       .  S
N1383      C1388   1.353       .  A
N1383      C1387   1.353       .  A
N1383      H1415   1.044       .  S
N1384      C1392   1.352       .  A
N1385      C1390   1.349       .  A
N1385      C1389   1.346       .  A
N1385      H1416   1.043       .  S
N1386      C1394   1.345   1_655  A
C1387      C1395   1.388       .  A
C1387      C1403   1.417       .  A
C1388      C1404   1.417   1_655  A
C1388      C1396   1.387       .  A
C1389      C1397   1.386   1_565  A
C1389      C1406   1.408       .  A
C1390      C1405   1.412   1_655  A
C1390      C1398   1.388   1_565  A
C1391      C1403   1.413       .  A
C1391      C1399   1.386       .  A
C1392      C1406   1.417       .  A
C1392      C1400   1.386       .  A
C1393      C1401   1.386       .  A
C1393      C1404   1.404       .  A
C1394      C1402   1.387       .  A
C1394      C1405   1.409       .  A
C1395      C1396   1.382       .  A
C1395      H1407   1.082       .  S
C1396      H1408   1.082       .  S
C1397      C1398   1.381       .  A
C1397      H2321   1.082       .  S
C1398      H2322   1.082       .  S
C1399      H1411   1.082       .  S
C1400      H1412   1.082       .  S
C1401      H1413   1.082       .  S
C1402      H1414   1.082       .  S
C1403      C1799   1.498       .  S
C1404      C1819   1.491       .  S
C1405      C1779   1.489       .  S
C1406      C1786   1.495       .  S
H1409      C1853   1.082       .  S
H1410      C1854   1.082       .  S
N1417      C1422   1.349       .  A
N1417      C1421   1.347       .  A
N1417      H1449   1.043       .  S
N1418      C1425   1.349       .  A
N1418      C1426   1.350       .  A
N1419      C1424   1.352   1_655  A
N1419      C1423   1.348   1_655  A
N1419      H1450   1.043       .  S
N1420      C1427   1.346       .  A
N1420      C1428   1.344       .  A
C1421      C1429   1.386       .  A
C1421      C1437   1.406       .  A
C1422      C1438   1.414       .  A
C1422      C1430   1.388       .  A
C1423      C1431   1.385       .  A
C1423      C1440   1.409       .  A
C1424      C1439   1.418       .  A
C1424      C1432   1.389       .  A
C1425      C1437   1.411       .  A
C1425      C1433   1.386       .  A
C1426      C1440   1.411   1_655  A
C1426      C1434   1.386       .  A
C1427      C1435   1.387       .  A
C1427      C1438   1.411       .  A
C1428      C1436   1.386       .  A
C1428      C1439   1.408   1_655  A
C1429      C1430   1.379       .  A
C1429      H1441   1.082       .  S
C1430      H1442   1.082       .  S
C1431      C1432   1.382       .  A
C1431      H1443   1.082       .  S
C1432      H1444   1.082       .  S
C1433      C1434   1.378       .  A
C1433      H1445   1.082       .  S
C1434      H1446   1.082       .  S
C1435      C1436   1.380       .  A
C1435      H2359   1.082       .  S
C1436      H2360   1.082       .  S
C1437      C1756   1.484       .  S
C1438      C1769   1.492       .  S
C1439      C1746   1.493       .  S
C1440      C1809   1.494       .  S
H1447      C1891   1.082       .  S
H1448      C1892   1.082       .  S
O1451     Ni1459   1.892       .  S
O1451      C1461   1.276       .  A
O1452     Ni1459   1.890       .  S
O1452      C1462   1.275       .  A
O1453     Ni1459   1.921       .  S
O1453      C1463   1.282       .  A
O1454     Ni1459   1.923       .  S
O1454      C1464   1.284       .  A
O1455     Ni1460   1.911       .  S
O1455      C1464   1.280       .  A
O1456     Ni1460   1.910       .  S
O1456      C1463   1.279       .  A
O1457     Ni1460   1.928       .  S
O1457      C1462   1.285       .  A
O1458     Ni1460   1.940       .  S
O1458      C1461   1.285       .  A
Ni1459    Ni1460   2.387       .  S
C1461      C1559   1.473       .  S
C1462      C1776   1.473       .  S
C1463      C1536   1.471       .  S
C1464      C1749   1.482       .  S
C1465      C1500   1.509       .  S
C1465      C1466   1.520       .  S
C1465      C1471   1.523       .  S
C1465      C1469   1.544       .  S
C1466      H1473   1.080       .  S
C1466      C1467   1.355       .  D
C1467      C1648   1.474       .  S
C1467      C1468   1.546       .  S
C1468      C1472   1.554       .  S
C1468      C1470   1.536       .  S
C1468      H1474   1.111       .  S
C1469      H1931   1.086       .  S
C1469      C1470   1.370       .  D
C1470      C1661   1.473       .  S
C1471      H1476   1.087       .  S
C1471      C1472   1.371       .  D
C1472      C1513   1.478       .  S
H1475      C2381   1.086       .  S
C1477      C1650   1.512       .  S
C1477      C1478   1.518       .  S
C1477      C1483   1.527       .  S
C1477      C1481   1.542       .  S
C1478      H1485   1.087       .  S
C1479      C1663   1.472       .  S
C1479      C1480   1.553       .  S
C1480      C1482   1.538       .  S
C1480      H1486   1.111       .  S
C1481      H1487   1.086       .  S
C1482      C1515   1.477       .  S
C1483      H1488   1.080       .  S
C1483      C1484   1.361       .  D
C1484      C1502   1.478       .  S
O1489     Ni1497   1.921       .  S
O1489      C1499   1.283       .  A
O1490     Ni1497   1.916       .  S
O1490      C1500   1.281       .  A
O1491     Ni1497   1.911       .  S
O1491      C1501   1.281       .  A
O1492     Ni1497   1.926       .  S
O1492      C1502   1.281       .  A
O1493     Ni1498   1.927       .  S
O1493      C1502   1.283       .  A
O1494     Ni1498   1.927       .  S
O1494      C1501   1.283       .  A
O1495     Ni1498   1.924       .  S
O1495      C1500   1.283       .  A
O1496     Ni1498   1.919       .  S
O1496      C1499   1.280       .  A
Ni1497    Ni1498   2.388       .  S
C1499      C1736   1.473       .  S
C1501      C1729   1.482       .  S
O1503     Ni1511   1.934       .  S
O1503      C1513   1.282       .  A
O1504     Ni1511   1.918       .  S
O1504      C1514   1.284       .  A
O1505     Ni1511   1.913       .  S
O1505      C1515   1.280       .  A
O1506     Ni1511   1.913       .  S
O1506      C1516   1.281       .  A
O1507     Ni1512   1.926       .  S
O1507      C1516   1.283       .  A
O1508     Ni1512   1.930       .  S
O1508      C1515   1.282       .  A
O1509     Ni1512   1.910       .  S
O1509      C1514   1.279       .  A
O1510     Ni1512   1.905       .  S
O1510      C1513   1.280       .  A
Ni1511    Ni1512   2.387       .  S
C1514      C1706   1.478       .  S
C1516      C1716   1.486       .  S
O1517     Ni1525   1.927       .  S
O1517      C1527   1.281       .  A
O1518     Ni1525   1.920       .  S
O1518      C1528   1.281       .  A
O1519     Ni1525   1.908       .  S
O1519      C1529   1.281       .  A
O1520     Ni1525   1.911       .  S
O1520      C1530   1.280       .  A
O1521     Ni1526   1.906       .  S
O1521      C1530   1.280       .  A
O1522     Ni1526   1.916       .  S
O1522      C1529   1.278       .  A
O1523     Ni1526   1.935       .  S
O1523      C1528   1.284       .  A
O1524     Ni1526   1.929       .  S
O1524      C1527   1.284       .  A
Ni1525    Ni1526   2.388       .  S
C1527      C1562   1.485       .  S
C1528      C1686   1.481       .  S
C1529      C1538   1.466       .  S
C1530      C1696   1.476       .  S
C1531      C1556   1.496       .  S
C1531      C1532   1.518       .  S
C1531      C1537   1.520       .  S
C1531      C1535   1.544       .  S
C1532      H1539   1.081       .  S
C1532      C1533   1.351       .  D
C1534      C1538   1.552       .  S
C1534      C1536   1.533       .  S
C1534      H1540   1.111       .  S
C1535      H1997   1.086       .  S
C1537      H1542   1.087       .  S
H1541      C2447   1.086       .  S
O1543     Ni1551   1.910       .  S
O1543      C1553   1.280       .  A
O1544     Ni1551   1.913       .  S
O1544      C1554   1.279       .  A
O1545     Ni1551   1.911       .  S
O1545      C1555   1.279       .  A
O1546     Ni1551   1.914       .  S
O1546      C1556   1.282       .  A
O1547     Ni1552   1.907       .  S
O1547      C1556   1.278       .  A
O1548     Ni1552   1.911       .  S
O1548      C1555   1.280       .  A
O1549     Ni1552   1.929       .  S
O1549      C1554   1.283       .  A
O1550     Ni1552   1.920       .  S
O1550      C1553   1.282       .  A
Ni1551    Ni1552   2.392       .  S
C1553      C1676   1.475       .  S
C1554      C1564   1.470       .  S
C1555      C1669   1.463       .  S
C1557      C1558   1.525       .  S
C1557      C1563   1.523       .  S
C1557      C1561   1.545       .  S
C1558      H1565   1.087       .  S
C1558      C1559   1.373       .  D
C1559      C1560   1.548       .  S
C1560      C1564   1.544       .  S
C1560      C1562   1.543       .  S
C1560      H1566   1.111       .  S
C1561      H1567   1.086       .  S
C1561      C1562   1.371       .  D
C1563      H1568   1.080       .  S
C1563      C1564   1.356       .  D
N1569      C1574   1.348       .  A
N1569      C1573   1.355       .  A
N1569      H1601   1.039       .  S
N1570      C1578   1.348       .  A
N1571      C1576   1.357   1_545  A
N1571      C1575   1.359   1_545  A
N1571      H1602   1.036       .  S
N1572      C1580   1.356   1_565  A
C1573      C1581   1.386       .  A
C1573      C1589   1.414       .  A
C1574      C1590   1.415       .  A
C1574      C1582   1.388       .  A
C1575      C1583   1.384       .  A
C1575      C1592   1.419   1_565  A
C1576      C1591   1.428       .  A
C1576      C1584   1.390       .  A
C1577      C1589   1.418       .  A
C1577      C1585   1.390       .  A
C1578      C1592   1.407       .  A
C1578      C1586   1.385       .  A
C1579      C1587   1.386       .  A
C1579      C1590   1.423       .  A
C1580      C1588   1.387       .  A
C1580      C1591   1.422   1_545  A
C1581      C1582   1.378       .  A
C1581      H2505   1.081       .  S
C1582      H2506   1.082       .  S
C1583      C1584   1.377       .  A
C1583      H1595   1.082       .  S
C1584      H1596   1.081       .  S
C1585      H1597   1.080       .  S
C1586      H1598   1.083       .  S
C1587      H1599   1.081       .  S
C1588      H1600   1.079       .  S
C1589      C1739   1.490       .  S
C1590      C1679   1.496       .  S
C1591      C1689   1.504       .  S
C1592      C1709   1.497   1_545  S
H1593      C2037   1.081       .  S
H1594      C2038   1.082       .  S
N1603      C1608   1.352       .  A
N1603      C1607   1.349       .  A
N1603      H1635   1.041       .  S
N1604      C1611   1.353       .  A
N1604      C1612   1.352       .  A
N1605      C1610   1.352       .  A
N1605      C1609   1.351       .  A
N1605      H1636   1.043       .  S
N1606      C1613   1.349       .  A
N1606      C1614   1.348       .  A
C1607      C1615   1.387       .  A
C1607      C1623   1.414       .  A
C1608      C1624   1.413       .  A
C1608      C1616   1.387       .  A
C1609      C1617   1.389       .  A
C1609      C1626   1.418       .  A
C1610      C1625   1.411       .  A
C1610      C1618   1.385       .  A
C1611      C1623   1.420       .  A
C1611      C1619   1.387       .  A
C1612      C1626   1.416       .  A
C1612      C1620   1.386       .  A
C1613      C1621   1.390       .  A
C1613      C1624   1.416       .  A
C1614      C1622   1.385       .  A
C1614      C1625   1.405       .  A
C1615      C1616   1.378       .  A
C1615      H2539   1.082       .  S
C1616      H2540   1.080       .  S
C1617      C1618   1.383       .  A
C1617      H1629   1.082       .  S
C1618      H1630   1.082       .  S
C1619      C1620   1.378       .  A
C1619      H1631   1.082       .  S
C1620      H1632   1.082       .  S
C1621      C1622   1.365       .  A
C1621      H1633   1.080       .  S
C1622      H1634   1.083       .  S
C1623      C1726   1.501       .  S
C1624      C1666   1.485       .  S
C1625      C1699   1.484       .  S
C1626      C1719   1.501       .  S
H1627      C2071   1.082       .  S
H1628      C2072   1.080       .  S
O1637     Ni1645   1.908       .  S
O1637      C1647   1.280       .  A
O1638     Ni1645   1.913       .  S
O1638      C1648   1.277       .  A
O1639     Ni1645   1.911       .  S
O1639      C1649   1.281       .  A
O1640     Ni1645   1.918       .  S
O1640      C1650   1.282       .  A
O1641     Ni1646   1.923       .  S
O1641      C1650   1.282       .  A
O1642     Ni1646   1.913       .  S
O1642      C1649   1.280       .  A
O1643     Ni1646   1.935       .  S
O1643      C1648   1.285       .  A
O1644     Ni1646   1.943       .  S
O1644      C1647   1.286       .  A
Ni1645    Ni1646   2.387       .  S
C1647      C1796   1.490       .  S
C1649      C1759   1.475       .  S
O1651     Ni1659   1.916       .  S
O1651      C1661   1.281       .  A
O1652     Ni1659   1.916       .  S
O1652      C1662   1.281       .  A
O1653     Ni1659   1.935       .  S
O1653      C1663   1.283       .  A
O1654     Ni1659   1.926       .  S
O1654      C1664   1.284       .  A
O1655     Ni1660   1.894       .  S
O1655      C1664   1.277       .  A
O1656     Ni1660   1.894       .  S
O1656      C1663   1.278       .  A
O1657     Ni1660   1.922       .  S
O1657      C1662   1.283       .  A
O1658     Ni1660   1.918       .  S
O1658      C1661   1.280       .  A
Ni1659    Ni1660   2.387       .  S
C1662      C1789   1.483       .  S
C1664      C1766   1.476       .  S
C1665      C2122   1.411       .  A
C1665      C1670   1.406       .  A
C1665      F1672   1.357       .  S
C1666      C2577   1.412       .  A
C1666      C1667   1.402       .  A
C1667      C1668   1.385       .  A
C1667      F1674   1.359       .  S
C1668      C2581   1.402       .  A
C1668      F1673   1.355       .  S
C1669      C2124   1.402       .  A
C1669      C1670   1.403       .  A
C1670      F1671   1.357       .  S
C1675      C1676   1.406       .  A
C1675      C2136   1.392       .  A
C1675      F1682   1.359       .  S
C1676      C1677   1.406       .  A
C1677      C2134   1.402       .  A
C1677      F1684   1.358       .  S
C1678      C2589   1.403       .  A
C1678      C1679   1.410       .  A
C1678      F1683   1.358       .  S
C1679      C1680   1.408       .  A
C1680      C2587   1.392       .  A
C1680      F1681   1.358       .  S
C1685      C1686   1.405       .  A
C1685      C1690   1.411   1_565  A
C1685      F1692   1.357   1_565  S
C1686      C1687   1.403       .  A
C1687      C1688   1.394       .  A
C1687      F1694   1.355       .  S
C1688      C1689   1.406       .  A
C1688      F1693   1.358       .  S
C1689      C1690   1.415   1_565  A
C1690      F1691   1.358       .  S
C1695      C1696   1.410       .  A
C1695      C1700   1.389       .  A
C1695      F1702   1.359       .  S
C1696      C1697   1.410       .  A
C1697      C1698   1.404       .  A
C1697      F1704   1.357       .  S
C1698      C1699   1.404       .  A
C1698      F1703   1.357       .  S
C1699      C1700   1.404       .  A
C1700      F1701   1.359       .  S
C1705      C1706   1.410   1_545  A
C1705      C1710   1.407       .  A
C1705      F1712   1.357       .  S
C1706      C1707   1.405       .  A
C1707      C1708   1.389       .  A
C1707      F1714   1.357       .  S
C1708      C1709   1.409       .  A
C1708      F1713   1.359       .  S
C1709      C1710   1.407   1_565  A
C1710      F1711   1.357       .  S
C1715      C1716   1.408       .  A
C1715      C1720   1.395       .  A
C1715      F1722   1.357       .  S
C1716      C1717   1.408       .  A
C1717      C1718   1.405       .  A
C1717      F1724   1.358       .  S
C1718      C1719   1.412       .  A
C1718      F1723   1.358       .  S
C1719      C1720   1.408       .  A
C1720      F1721   1.358       .  S
C1725      C1726   1.411       .  A
C1725      C2642   1.399   1_554  A
C1725      F1732   1.358       .  S
C1726      C1727   1.409       .  A
C1727      C2640   1.401       .  A
C1727      F1734   1.358       .  S
C1728      C2183   1.400       .  A
C1728      C1729   1.407       .  A
C1728      F1733   1.358       .  S
C1729      C1730   1.408       .  A
C1730      C2181   1.399       .  A
C1730      F1731   1.358       .  S
C1735      C2648   1.401       .  A
C1735      C1740   1.385       .  A
C1735      F1742   1.351       .  S
C1736      C2191   1.402       .  A
C1736      C1737   1.405       .  A
C1737      C1738   1.411       .  A
C1737      F1744   1.357       .  S
C1738      C2195   1.412       .  A
C1738      F1743   1.357       .  S
C1739      C2650   1.413       .  A
C1739      C1740   1.400       .  A
C1740      F1741   1.359       .  S
C1745      C1746   1.408       .  A
C1745      C2662   1.402       .  A
C1745      F1752   1.358       .  S
C1746      C1747   1.407       .  A
C1747      C2660   1.394   1_554  A
C1747      F1754   1.358   1_455  S
C1748      C2203   1.394       .  A
C1748      C1749   1.407       .  A
C1748      F1753   1.356       .  S
C1749      C1750   1.410       .  A
C1750      C2201   1.402       .  A
C1750      F1751   1.358       .  S
C1755      C1756   1.404       .  A
C1755      C1760   1.401       .  A
C1755      F1762   1.358       .  S
C1756      C1757   1.406       .  A
C1757      C1758   1.390       .  A
C1757      F1764   1.359       .  S
C1758      C1759   1.406       .  A
C1758      F1763   1.357       .  S
C1759      C1760   1.409       .  A
C1760      F1761   1.357       .  S
C1765      C1766   1.410       .  A
C1765      C1770   1.391       .  A
C1765      F1772   1.358       .  S
C1766      C2223   1.404       .  A
C1767      C2678   1.404   1_554  A
C1767      C1768   1.401       .  A
C1767      F1774   1.357       .  S
C1768      C1769   1.412       .  A
C1768      F1773   1.358       .  S
C1769      C2682   1.404       .  A
C1770      C2225   1.404       .  A
C1770      F1771   1.358       .  S
C1775      C1776   1.410       .  A
C1775      C2236   1.390       .  A
C1775      F1782   1.358       .  S
C1776      C2233   1.402       .  A
C1777      C2688   1.402   1_554  A
C1777      C1778   1.399       .  A
C1777      F1784   1.357   1_565  S
C1778      C1779   1.412       .  A
C1778      F1783   1.358   1_565  S
C1779      C1780   1.404       .  A
C1780      C2687   1.390   1_554  A
C1780      F1781   1.358   1_455  S
C1785      C2242   1.408       .  A
C1785      C1790   1.403       .  A
C1785      F1792   1.357   1_565  S
C1786      C2697   1.408       .  A
C1786      C1787   1.408       .  A
C1787      C1788   1.395   1_554  A
C1787      F1794   1.359       .  S
C1788      C2701   1.407   1_556  A
C1788      F1793   1.356       .  S
C1789      C2244   1.407       .  A
C1789      C1790   1.408       .  A
C1790      F1791   1.357       .  S
C1795      C1796   1.410       .  A
C1795      C1800   1.411       .  A
C1795      F1802   1.357       .  S
C1796      C1797   1.409       .  A
C1797      C1798   1.392       .  A
C1797      F1804   1.357       .  S
C1798      C1799   1.405       .  A
C1798      F1803   1.359       .  S
C1799      C1800   1.411       .  A
C1800      F1801   1.358       .  S
C1805      C1806   1.406       .  A
C1805      C1810   1.390       .  A
C1805      F1812   1.359       .  S
C1806      C1807   1.407       .  A
C1807      C1808   1.405       .  A
C1807      F1814   1.358       .  S
C1808      C1809   1.411       .  A
C1808      F1813   1.358       .  S
C1809      C1810   1.408       .  A
C1810      F1811   1.358       .  S
C1815      C1816   1.411       .  A
C1815      C1820   1.403       .  A
C1815      F1822   1.358       .  S
C1816      C1817   1.407       .  A
C1817      C1818   1.394       .  A
C1817      F1824   1.358       .  S
C1818      C1819   1.409       .  A
C1818      F1823   1.358       .  S
C1819      C1820   1.405       .  A
C1820      F1821   1.358       .  S
O1825     Ni1833   1.912       .  S
O1825      C1835   1.279       .  A
O1826     Ni1833   1.922       .  S
O1826      C1836   1.282       .  A
O1827     Ni1833   1.928       .  S
O1827      C1837   1.283       .  A
O1828     Ni1833   1.926       .  S
O1828      C1838   1.284       .  A
O1829     Ni1834   1.907       .  S
O1829      C1838   1.276       .  A
O1830     Ni1834   1.898       .  S
O1830      C1837   1.278       .  A
O1831     Ni1834   1.929       .  S
O1831      C1836   1.284       .  A
O1832     Ni1834   1.920       .  S
O1832      C1835   1.283       .  A
Ni1833    Ni1834   2.388       .  S
C1835      C2272   1.482       .  S
C1836      C2013   1.516       .  S
C1837      C2262   1.474       .  S
C1838      C1989   1.463       .  S
N1839      C1844   1.353       .  A
N1839      C1843   1.353       .  A
N1839      H1871   1.044       .  S
N1840      C1848   1.352       .  A
N1841      C1846   1.349       .  A
N1841      C1845   1.346       .  A
N1841      H1872   1.044       .  S
N1842      C1850   1.345   1_655  A
C1843      C1851   1.388       .  A
C1843      C1859   1.417       .  A
C1844      C1860   1.417   1_655  A
C1844      C1852   1.387       .  A
C1845      C1853   1.386   1_565  A
C1845      C1862   1.409       .  A
C1846      C1861   1.412   1_655  A
C1846      C1854   1.388   1_565  A
C1847      C1859   1.412       .  A
C1847      C1855   1.386       .  A
C1848      C1862   1.417       .  A
C1848      C1856   1.386       .  A
C1849      C1857   1.386       .  A
C1849      C1860   1.405       .  A
C1850      C1858   1.387       .  A
C1850      C1861   1.409       .  A
C1851      C1852   1.382       .  A
C1851      H1863   1.082       .  S
C1852      H1864   1.082       .  S
C1853      C1854   1.381       .  A
C1855      H1867   1.082       .  S
C1856      H1868   1.082       .  S
C1857      H1869   1.082       .  S
C1858      H1870   1.082       .  S
C1859      C2255   1.497       .  S
C1860      C2275   1.493       .  S
C1861      C2235   1.490       .  S
C1862      C2242   1.495       .  S
H1865      C2309   1.082       .  S
H1866      C2310   1.082       .  S
N1873      C1878   1.349       .  A
N1873      C1877   1.347       .  A
N1873      H1905   1.043       .  S
N1874      C1881   1.349       .  A
N1874      C1882   1.350       .  A
N1875      C1880   1.352   1_655  A
N1875      C1879   1.348   1_655  A
N1875      H1906   1.043       .  S
N1876      C1883   1.346       .  A
N1876      C1884   1.344       .  A
C1877      C1885   1.386       .  A
C1877      C1893   1.405       .  A
C1878      C1894   1.414       .  A
C1878      C1886   1.388       .  A
C1879      C1887   1.384       .  A
C1879      C1896   1.408       .  A
C1880      C1895   1.418       .  A
C1880      C1888   1.389       .  A
C1881      C1893   1.410       .  A
C1881      C1889   1.386       .  A
C1882      C1896   1.411   1_655  A
C1882      C1890   1.387       .  A
C1883      C1891   1.387       .  A
C1883      C1894   1.411       .  A
C1884      C1892   1.386       .  A
C1884      C1895   1.407   1_655  A
C1885      C1886   1.379       .  A
C1885      H1897   1.082       .  S
C1886      H1898   1.082       .  S
C1887      C1888   1.381       .  A
C1887      H1899   1.082       .  S
C1888      H1900   1.082       .  S
C1889      C1890   1.378       .  A
C1889      H1901   1.082       .  S
C1890      H1902   1.082       .  S
C1891      C1892   1.380       .  A
C1893      C2212   1.484       .  S
C1894      C2225   1.491       .  S
C1895      C2202   1.492       .  S
C1896      C2265   1.491       .  S
H1903      C2347   1.082       .  S
H1904      C2348   1.082       .  S
O1907     Ni1915   1.893       .  S
O1907      C1917   1.276       .  A
O1908     Ni1915   1.890       .  S
O1908      C1918   1.275       .  A
O1909     Ni1915   1.920       .  S
O1909      C1919   1.282       .  A
O1910     Ni1915   1.924       .  S
O1910      C1920   1.284       .  A
O1911     Ni1916   1.911       .  S
O1911      C1920   1.280       .  A
O1912     Ni1916   1.910       .  S
O1912      C1919   1.279       .  A
O1913     Ni1916   1.928       .  S
O1913      C1918   1.285       .  A
O1914     Ni1916   1.940       .  S
O1914      C1917   1.285       .  A
Ni1915    Ni1916   2.387       .  S
C1917      C2015   1.473       .  S
C1918      C2232   1.473       .  S
C1919      C1992   1.470       .  S
C1920      C2205   1.482       .  S
C1921      C1956   1.510       .  S
C1921      C1922   1.520       .  S
C1921      C1927   1.522       .  S
C1921      C1925   1.545       .  S
C1922      H1929   1.080       .  S
C1922      C1923   1.354       .  D
C1923      C2104   1.474       .  S
C1923      C1924   1.546       .  S
C1924      C1928   1.554       .  S
C1924      C1926   1.537       .  S
C1924      H1930   1.111       .  S
C1925      H2387   1.086       .  S
C1925      C1926   1.371       .  D
C1926      C2117   1.476       .  S
C1927      H1932   1.087       .  S
C1927      C1928   1.371       .  D
C1928      C1969   1.478       .  S
C1933      C2106   1.512       .  S
C1933      C1934   1.518       .  S
C1933      C1939   1.526       .  S
C1933      C1937   1.542       .  S
C1934      H1941   1.087       .  S
C1935      C2119   1.472       .  S
C1935      C1936   1.553       .  S
C1936      C1938   1.538       .  S
C1936      H1942   1.111       .  S
C1937      H1943   1.086       .  S
C1938      C1971   1.478       .  S
C1939      H1944   1.080       .  S
C1939      C1940   1.360       .  D
C1940      C1958   1.477       .  S
O1945     Ni1953   1.921       .  S
O1945      C1955   1.283       .  A
O1946     Ni1953   1.917       .  S
O1946      C1956   1.281       .  A
O1947     Ni1953   1.911       .  S
O1947      C1957   1.281       .  A
O1948     Ni1953   1.925       .  S
O1948      C1958   1.281       .  A
O1949     Ni1954   1.926       .  S
O1949      C1958   1.282       .  A
O1950     Ni1954   1.926       .  S
O1950      C1957   1.283       .  A
O1951     Ni1954   1.925       .  S
O1951      C1956   1.283       .  A
O1952     Ni1954   1.920       .  S
O1952      C1955   1.280       .  A
Ni1953    Ni1954   2.388       .  S
C1955      C2192   1.474       .  S
C1957      C2185   1.482       .  S
O1959     Ni1967   1.935       .  S
O1959      C1969   1.282       .  A
O1960     Ni1967   1.919       .  S
O1960      C1970   1.284       .  A
O1961     Ni1967   1.913       .  S
O1961      C1971   1.280       .  A
O1962     Ni1967   1.913       .  S
O1962      C1972   1.281       .  A
O1963     Ni1968   1.927       .  S
O1963      C1972   1.284       .  A
O1964     Ni1968   1.931       .  S
O1964      C1971   1.282       .  A
O1965     Ni1968   1.910       .  S
O1965      C1970   1.278       .  A
O1966     Ni1968   1.905       .  S
O1966      C1969   1.280       .  A
Ni1967    Ni1968   2.387       .  S
C1970      C2162   1.478       .  S
C1972      C2172   1.487       .  S
O1973     Ni1981   1.924       .  S
O1973      C1983   1.281       .  A
O1974     Ni1981   1.918       .  S
O1974      C1984   1.281       .  A
O1975     Ni1981   1.907       .  S
O1975      C1985   1.281       .  A
O1976     Ni1981   1.911       .  S
O1976      C1986   1.280       .  A
O1977     Ni1982   1.905       .  S
O1977      C1986   1.280       .  A
O1978     Ni1982   1.915       .  S
O1978      C1985   1.278       .  A
O1979     Ni1982   1.933       .  S
O1979      C1984   1.284       .  A
O1980     Ni1982   1.927       .  S
O1980      C1983   1.284       .  A
Ni1981    Ni1982   2.389       .  S
C1983      C2018   1.482       .  S
C1984      C2142   1.479       .  S
C1985      C1994   1.465       .  S
C1986      C2152   1.475       .  S
C1987      C2012   1.495       .  S
C1987      C1988   1.517       .  S
C1987      C1993   1.520       .  S
C1987      C1991   1.545       .  S
C1988      H1995   1.080       .  S
C1988      C1989   1.350       .  D
C1990      C1994   1.551       .  S
C1990      C1992   1.532       .  S
C1990      H1996   1.111       .  S
C1991      H2453   1.086       .  S
C1993      H1998   1.087       .  S
O1999     Ni2007   1.911       .  S
O1999      C2009   1.280       .  A
O2000     Ni2007   1.914       .  S
O2000      C2010   1.279       .  A
O2001     Ni2007   1.913       .  S
O2001      C2011   1.279       .  A
O2002     Ni2007   1.913       .  S
O2002      C2012   1.282       .  A
O2003     Ni2008   1.906       .  S
O2003      C2012   1.278       .  A
O2004     Ni2008   1.912       .  S
O2004      C2011   1.281       .  A
O2005     Ni2008   1.930       .  S
O2005      C2010   1.283       .  A
O2006     Ni2008   1.919       .  S
O2006      C2009   1.282       .  A
Ni2007    Ni2008   2.392       .  S
C2009      C2132   1.475       .  S
C2010      C2020   1.471       .  S
C2011      C2125   1.464       .  S
C2013      C2014   1.526       .  S
C2013      C2019   1.524       .  S
C2013      C2017   1.544       .  S
C2014      H2021   1.087       .  S
C2014      C2015   1.374       .  D
C2015      C2016   1.548       .  S
C2016      C2020   1.543       .  S
C2016      C2018   1.542       .  S
C2016      H2022   1.111       .  S
C2017      H2023   1.086       .  S
C2017      C2018   1.370       .  D
C2019      H2024   1.080       .  S
C2019      C2020   1.357       .  D
N2025      C2030   1.348       .  A
N2025      C2029   1.354       .  A
N2025      H2057   1.039       .  S
N2026      C2034   1.348       .  A
N2027      C2032   1.356   1_545  A
N2027      C2031   1.357   1_545  A
N2027      H2058   1.040       .  S
N2028      C2036   1.355   1_565  A
C2029      C2037   1.386       .  A
C2029      C2045   1.413       .  A
C2030      C2046   1.415       .  A
C2030      C2038   1.388       .  A
C2031      C2039   1.384       .  A
C2031      C2048   1.418   1_565  A
C2032      C2047   1.427       .  A
C2032      C2040   1.391       .  A
C2033      C2045   1.418       .  A
C2033      C2041   1.390       .  A
C2034      C2048   1.407       .  A
C2034      C2042   1.385       .  A
C2035      C2043   1.386       .  A
C2035      C2046   1.423       .  A
C2036      C2044   1.387       .  A
C2036      C2047   1.420   1_545  A
C2037      C2038   1.378       .  A
C2039      C2040   1.377       .  A
C2039      H2051   1.082       .  S
C2040      H2052   1.081       .  S
C2041      H2053   1.080       .  S
C2042      H2054   1.083       .  S
C2043      H2055   1.081       .  S
C2044      H2056   1.079       .  S
C2045      C2195   1.490       .  S
C2046      C2135   1.495       .  S
C2047      C2145   1.502       .  S
C2048      C2165   1.495   1_545  S
H2049      C2493   1.081       .  S
H2050      C2494   1.082       .  S
N2059      C2064   1.352       .  A
N2059      C2063   1.349       .  A
N2059      H2091   1.041       .  S
N2060      C2067   1.354       .  A
N2060      C2068   1.352       .  A
N2061      C2066   1.352       .  A
N2061      C2065   1.352       .  A
N2061      H2092   1.043       .  S
N2062      C2069   1.349       .  A
N2062      C2070   1.348       .  A
C2063      C2071   1.387       .  A
C2063      C2079   1.414       .  A
C2064      C2080   1.413       .  A
C2064      C2072   1.387       .  A
C2065      C2073   1.389       .  A
C2065      C2082   1.418       .  A
C2066      C2081   1.412       .  A
C2066      C2074   1.385       .  A
C2067      C2079   1.420       .  A
C2067      C2075   1.387       .  A
C2068      C2082   1.417       .  A
C2068      C2076   1.386       .  A
C2069      C2077   1.390       .  A
C2069      C2080   1.415       .  A
C2070      C2078   1.385       .  A
C2070      C2081   1.405       .  A
C2071      C2072   1.378       .  A
C2073      C2074   1.383       .  A
C2073      H2085   1.082       .  S
C2074      H2086   1.082       .  S
C2075      C2076   1.378       .  A
C2075      H2087   1.082       .  S
C2076      H2088   1.082       .  S
C2077      C2078   1.365       .  A
C2077      H2089   1.080       .  S
C2078      H2090   1.083       .  S
C2079      C2182   1.500       .  S
C2080      C2122   1.484       .  S
C2081      C2155   1.485       .  S
C2082      C2175   1.502       .  S
H2083      C2527   1.082       .  S
H2084      C2528   1.081       .  S
O2093     Ni2101   1.907       .  S
O2093      C2103   1.280       .  A
O2094     Ni2101   1.914       .  S
O2094      C2104   1.278       .  A
O2095     Ni2101   1.913       .  S
O2095      C2105   1.282       .  A
O2096     Ni2101   1.919       .  S
O2096      C2106   1.282       .  A
O2097     Ni2102   1.923       .  S
O2097      C2106   1.282       .  A
O2098     Ni2102   1.914       .  S
O2098      C2105   1.280       .  A
O2099     Ni2102   1.934       .  S
O2099      C2104   1.285       .  A
O2100     Ni2102   1.941       .  S
O2100      C2103   1.285       .  A
Ni2101    Ni2102   2.387       .  S
C2103      C2252   1.488       .  S
C2105      C2215   1.476       .  S
O2107     Ni2115   1.918       .  S
O2107      C2117   1.281       .  A
O2108     Ni2115   1.917       .  S
O2108      C2118   1.281       .  A
O2109     Ni2115   1.936       .  S
O2109      C2119   1.283       .  A
O2110     Ni2115   1.927       .  S
O2110      C2120   1.284       .  A
O2111     Ni2116   1.893       .  S
O2111      C2120   1.276       .  A
O2112     Ni2116   1.893       .  S
O2112      C2119   1.277       .  A
O2113     Ni2116   1.923       .  S
O2113      C2118   1.284       .  A
O2114     Ni2116   1.920       .  S
O2114      C2117   1.281       .  A
Ni2115    Ni2116   2.386       .  S
C2118      C2245   1.485       .  S
C2120      C2222   1.476       .  S
C2121      C2578   1.412       .  A
C2121      C2126   1.407       .  A
C2121      F2128   1.357       .  S
C2122      C2123   1.401       .  A
C2123      C2124   1.384       .  A
C2123      F2130   1.359       .  S
C2124      F2129   1.355       .  S
C2125      C2580   1.402       .  A
C2125      C2126   1.403       .  A
C2126      F2127   1.357       .  S
C2131      C2132   1.406       .  A
C2131      C2592   1.392       .  A
C2131      F2138   1.359       .  S
C2132      C2133   1.406       .  A
C2133      C2590   1.403       .  A
C2133      F2140   1.358       .  S
C2134      C2135   1.409       .  A
C2134      F2139   1.358       .  S
C2135      C2136   1.408       .  A
C2136      F2137   1.358       .  S
C2141      C2142   1.405       .  A
C2141      C2146   1.410   1_565  A
C2141      F2148   1.357   1_565  S
C2142      C2143   1.403       .  A
C2143      C2144   1.394       .  A
C2143      F2150   1.355       .  S
C2144      C2145   1.406       .  A
C2144      F2149   1.358       .  S
C2145      C2146   1.414   1_565  A
C2146      F2147   1.358       .  S
C2151      C2152   1.410       .  A
C2151      C2156   1.389       .  A
C2151      F2158   1.359       .  S
C2152      C2153   1.409       .  A
C2153      C2154   1.404       .  A
C2153      F2160   1.357       .  S
C2154      C2155   1.404       .  A
C2154      F2159   1.357       .  S
C2155      C2156   1.404       .  A
C2156      F2157   1.359       .  S
C2161      C2162   1.410   1_545  A
C2161      C2166   1.407       .  A
C2161      F2168   1.357       .  S
C2162      C2163   1.404       .  A
C2163      C2164   1.388       .  A
C2163      F2170   1.356       .  S
C2164      C2165   1.408       .  A
C2164      F2169   1.359       .  S
C2165      C2166   1.407   1_565  A
C2166      F2167   1.357       .  S
C2171      C2172   1.408       .  A
C2171      C2176   1.395       .  A
C2171      F2178   1.357       .  S
C2172      C2173   1.408       .  A
C2173      C2174   1.405       .  A
C2173      F2180   1.358       .  S
C2174      C2175   1.412       .  A
C2174      F2179   1.357       .  S
C2175      C2176   1.408       .  A
C2176      F2177   1.358       .  S
C2181      C2182   1.411       .  A
C2181      F2188   1.358       .  S
C2182      C2183   1.408       .  A
C2183      F2190   1.358       .  S
C2184      C2639   1.400       .  A
C2184      C2185   1.407       .  A
C2184      F2189   1.358       .  S
C2185      C2186   1.408       .  A
C2186      C2637   1.399       .  A
C2186      F2187   1.358       .  S
C2191      C2196   1.386       .  A
C2191      F2198   1.352       .  S
C2192      C2647   1.401       .  A
C2192      C2193   1.406       .  A
C2193      C2194   1.412       .  A
C2193      F2200   1.357       .  S
C2194      C2651   1.413       .  A
C2194      F2199   1.357       .  S
C2195      C2196   1.401       .  A
C2196      F2197   1.359       .  S
C2201      C2202   1.408       .  A
C2201      F2208   1.358       .  S
C2202      C2203   1.407       .  A
C2203      F2210   1.358   1_455  S
C2204      C2659   1.394       .  A
C2204      C2205   1.407       .  A
C2204      F2209   1.356       .  S
C2205      C2206   1.410       .  A
C2206      C2657   1.402       .  A
C2206      F2207   1.358       .  S
C2211      C2212   1.404       .  A
C2211      C2216   1.402       .  A
C2211      F2218   1.358       .  S
C2212      C2213   1.406       .  A
C2213      C2214   1.390       .  A
C2213      F2220   1.359       .  S
C2214      C2215   1.406       .  A
C2214      F2219   1.357       .  S
C2215      C2216   1.409       .  A
C2216      F2217   1.357       .  S
C2221      C2222   1.410       .  A
C2221      C2226   1.391       .  A
C2221      F2228   1.358       .  S
C2222      C2679   1.404       .  A
C2223      C2224   1.401       .  A
C2223      F2230   1.358       .  S
C2224      C2225   1.412       .  A
C2224      F2229   1.358       .  S
C2226      C2681   1.404       .  A
C2226      F2227   1.358       .  S
C2231      C2232   1.410       .  A
C2231      C2692   1.390       .  A
C2231      F2238   1.358       .  S
C2232      C2689   1.402       .  A
C2233      C2234   1.399       .  A
C2233      F2240   1.357   1_565  S
C2234      C2235   1.412       .  A
C2234      F2239   1.358   1_565  S
C2235      C2236   1.404       .  A
C2236      F2237   1.358   1_455  S
C2241      C2698   1.408       .  A
C2241      C2246   1.403       .  A
C2241      F2248   1.358   1_565  S
C2242      C2243   1.408       .  A
C2243      C2244   1.395       .  A
C2243      F2250   1.359       .  S
C2244      F2249   1.356       .  S
C2245      C2700   1.407       .  A
C2245      C2246   1.409       .  A
C2246      F2247   1.357       .  S
C2251      C2252   1.410       .  A
C2251      C2256   1.410       .  A
C2251      F2258   1.357       .  S
C2252      C2253   1.408       .  A
C2253      C2254   1.391       .  A
C2253      F2260   1.357       .  S
C2254      C2255   1.405       .  A
C2254      F2259   1.359       .  S
C2255      C2256   1.411       .  A
C2256      F2257   1.358       .  S
C2261      C2262   1.406       .  A
C2261      C2266   1.389       .  A
C2261      F2268   1.359       .  S
C2262      C2263   1.406       .  A
C2263      C2264   1.405       .  A
C2263      F2270   1.357       .  S
C2264      C2265   1.410       .  A
C2264      F2269   1.357       .  S
C2265      C2266   1.408       .  A
C2266      F2267   1.359       .  S
C2271      C2272   1.411       .  A
C2271      C2276   1.403       .  A
C2271      F2278   1.358       .  S
C2272      C2273   1.406       .  A
C2273      C2274   1.394       .  A
C2273      F2280   1.358       .  S
C2274      C2275   1.409       .  A
C2274      F2279   1.358       .  S
C2275      C2276   1.405       .  A
C2276      F2277   1.358       .  S
O2281     Ni2289   1.912       .  S
O2281      C2291   1.279       .  A
O2282     Ni2289   1.921       .  S
O2282      C2292   1.282       .  A
O2283     Ni2289   1.929       .  S
O2283      C2293   1.283       .  A
O2284     Ni2289   1.927       .  S
O2284      C2294   1.284       .  A
O2285     Ni2290   1.910       .  S
O2285      C2294   1.277       .  A
O2286     Ni2290   1.901       .  S
O2286      C2293   1.278       .  A
O2287     Ni2290   1.929       .  S
O2287      C2292   1.284       .  A
O2288     Ni2290   1.921       .  S
O2288      C2291   1.283       .  A
Ni2289    Ni2290   2.388       .  S
C2291      C2728   1.482       .  S
C2292      C2469   1.515       .  S
C2293      C2718   1.477       .  S
C2294      C2445   1.466       .  S
N2295      C2300   1.353       .  A
N2295      C2299   1.353       .  A
N2295      H2327   1.044       .  S
N2296      C2304   1.352       .  A
N2297      C2302   1.349       .  A
N2297      C2301   1.346       .  A
N2297      H2328   1.044       .  S
N2298      C2306   1.345   1_655  A
C2299      C2307   1.388       .  A
C2299      C2315   1.418       .  A
C2300      C2316   1.417   1_655  A
C2300      C2308   1.387       .  A
C2301      C2309   1.386   1_565  A
C2301      C2318   1.408       .  A
C2302      C2317   1.412   1_655  A
C2302      C2310   1.388   1_565  A
C2303      C2315   1.413       .  A
C2303      C2311   1.386       .  A
C2304      C2318   1.417       .  A
C2304      C2312   1.386       .  A
C2305      C2313   1.386       .  A
C2305      C2316   1.404       .  A
C2306      C2314   1.387       .  A
C2306      C2317   1.409       .  A
C2307      C2308   1.382       .  A
C2307      H2319   1.082       .  S
C2308      H2320   1.082       .  S
C2309      C2310   1.381       .  A
C2311      H2323   1.082       .  S
C2312      H2324   1.082       .  S
C2313      H2325   1.082       .  S
C2314      H2326   1.082       .  S
C2315      C2711   1.498       .  S
C2316      C2731   1.492       .  S
C2317      C2691   1.489       .  S
C2318      C2698   1.496       .  S
N2329      C2334   1.349       .  A
N2329      C2333   1.347       .  A
N2329      H2361   1.043       .  S
N2330      C2337   1.349       .  A
N2330      C2338   1.350       .  A
N2331      C2336   1.352   1_655  A
N2331      C2335   1.348   1_655  A
N2331      H2362   1.043       .  S
N2332      C2339   1.346       .  A
N2332      C2340   1.344       .  A
C2333      C2341   1.386       .  A
C2333      C2349   1.405       .  A
C2334      C2350   1.413       .  A
C2334      C2342   1.388       .  A
C2335      C2343   1.384       .  A
C2335      C2352   1.409       .  A
C2336      C2351   1.418       .  A
C2336      C2344   1.389       .  A
C2337      C2349   1.411       .  A
C2337      C2345   1.386       .  A
C2338      C2352   1.411   1_655  A
C2338      C2346   1.387       .  A
C2339      C2347   1.387       .  A
C2339      C2350   1.411       .  A
C2340      C2348   1.386       .  A
C2340      C2351   1.408   1_655  A
C2341      C2342   1.379       .  A
C2341      H2353   1.082       .  S
C2342      H2354   1.082       .  S
C2343      C2344   1.382       .  A
C2343      H2355   1.082       .  S
C2344      H2356   1.082       .  S
C2345      C2346   1.379       .  A
C2345      H2357   1.082       .  S
C2346      H2358   1.082       .  S
C2347      C2348   1.380       .  A
C2349      C2668   1.484       .  S
C2350      C2681   1.491       .  S
C2351      C2658   1.491       .  S
C2352      C2721   1.493       .  S
O2363     Ni2371   1.892       .  S
O2363      C2373   1.276       .  A
O2364     Ni2371   1.889       .  S
O2364      C2374   1.275       .  A
O2365     Ni2371   1.921       .  S
O2365      C2375   1.282       .  A
O2366     Ni2371   1.924       .  S
O2366      C2376   1.284       .  A
O2367     Ni2372   1.912       .  S
O2367      C2376   1.280       .  A
O2368     Ni2372   1.911       .  S
O2368      C2375   1.279       .  A
O2369     Ni2372   1.927       .  S
O2369      C2374   1.285       .  A
O2370     Ni2372   1.939       .  S
O2370      C2373   1.285       .  A
Ni2371    Ni2372   2.387       .  S
C2373      C2471   1.473       .  S
C2374      C2688   1.472       .  S
C2375      C2448   1.471       .  S
C2376      C2661   1.483       .  S
C2377      C2412   1.509       .  S
C2377      C2378   1.520       .  S
C2377      C2383   1.524       .  S
C2377      C2381   1.544       .  S
C2378      H2385   1.080       .  S
C2378      C2379   1.354       .  D
C2379      C2560   1.474       .  S
C2379      C2380   1.546       .  S
C2380      C2384   1.555       .  S
C2380      C2382   1.537       .  S
C2380      H2386   1.111       .  S
C2381      C2382   1.370       .  D
C2382      C2573   1.473       .  S
C2383      H2388   1.087       .  S
C2383      C2384   1.371       .  D
C2384      C2425   1.480       .  S
C2389      C2562   1.511       .  S
C2389      C2390   1.518       .  S
C2389      C2395   1.526       .  S
C2389      C2393   1.541       .  S
C2390      H2397   1.087       .  S
C2391      C2575   1.473       .  S
C2391      C2392   1.554       .  S
C2392      C2394   1.539       .  S
C2392      H2398   1.111       .  S
C2393      H2399   1.086       .  S
C2394      C2427   1.479       .  S
C2395      H2400   1.080       .  S
C2395      C2396   1.360       .  D
C2396      C2414   1.478       .  S
O2401     Ni2409   1.921   1_554  S
O2401      C2411   1.283   1_554  A
O2402     Ni2409   1.917       .  S
O2402      C2412   1.281       .  A
O2403     Ni2409   1.912       .  S
O2403      C2413   1.281       .  A
O2404     Ni2409   1.926       .  S
O2404      C2414   1.281       .  A
O2405     Ni2410   1.927       .  S
O2405      C2414   1.283       .  A
O2406     Ni2410   1.926       .  S
O2406      C2413   1.283       .  A
O2407     Ni2410   1.924       .  S
O2407      C2412   1.283       .  A
O2408     Ni2410   1.919       .  S
O2408      C2411   1.280       .  A
Ni2409    Ni2410   2.388       .  S
C2411      C2648   1.474   1_556  S
C2413      C2641   1.483       .  S
O2415     Ni2423   1.937       .  S
O2415      C2425   1.283       .  A
O2416     Ni2423   1.922       .  S
O2416      C2426   1.284       .  A
O2417     Ni2423   1.913       .  S
O2417      C2427   1.280       .  A
O2418     Ni2423   1.912       .  S
O2418      C2428   1.281       .  A
O2419     Ni2424   1.927       .  S
O2419      C2428   1.283       .  A
O2420     Ni2424   1.931       .  S
O2420      C2427   1.283       .  A
O2421     Ni2424   1.912       .  S
O2421      C2426   1.279       .  A
O2422     Ni2424   1.907       .  S
O2422      C2425   1.280       .  A
Ni2423    Ni2424   2.387       .  S
C2426      C2618   1.481       .  S
C2428      C2628   1.485       .  S
O2429     Ni2437   1.927       .  S
O2429      C2439   1.281       .  A
O2430     Ni2437   1.921       .  S
O2430      C2440   1.281       .  A
O2431     Ni2437   1.909       .  S
O2431      C2441   1.282       .  A
O2432     Ni2437   1.911       .  S
O2432      C2442   1.280       .  A
O2433     Ni2438   1.905       .  S
O2433      C2442   1.280       .  A
O2434     Ni2438   1.916       .  S
O2434      C2441   1.278       .  A
O2435     Ni2438   1.935       .  S
O2435      C2440   1.284       .  A
O2436     Ni2438   1.928       .  S
O2436      C2439   1.284       .  A
Ni2437    Ni2438   2.388       .  S
C2439      C2474   1.484       .  S
C2440      C2598   1.482       .  S
C2441      C2450   1.466       .  S
C2442      C2608   1.476       .  S
C2443      C2468   1.496       .  S
C2443      C2444   1.518       .  S
C2443      C2449   1.519       .  S
C2443      C2447   1.544       .  S
C2444      H2451   1.081       .  S
C2444      C2445   1.351       .  D
C2446      C2450   1.552       .  S
C2446      C2448   1.533       .  S
C2446      H2452   1.111       .  S
C2449      H2454   1.087       .  S
O2455     Ni2463   1.911       .  S
O2455      C2465   1.280       .  A
O2456     Ni2463   1.913       .  S
O2456      C2466   1.279       .  A
O2457     Ni2463   1.912       .  S
O2457      C2467   1.279       .  A
O2458     Ni2463   1.915       .  S
O2458      C2468   1.282       .  A
O2459     Ni2464   1.906       .  S
O2459      C2468   1.278       .  A
O2460     Ni2464   1.911   1_554  S
O2460      C2467   1.280   1_554  A
O2461     Ni2464   1.930       .  S
O2461      C2466   1.283       .  A
O2462     Ni2464   1.920   1_554  S
O2462      C2465   1.282   1_554  A
Ni2463    Ni2464   2.392       .  S
C2465      C2588   1.475   1_556  S
C2466      C2476   1.471       .  S
C2467      C2581   1.463   1_556  S
C2469      C2470   1.525       .  S
C2469      C2475   1.524       .  S
C2469      C2473   1.544       .  S
C2470      H2477   1.087       .  S
C2470      C2471   1.373       .  D
C2471      C2472   1.548       .  S
C2472      C2476   1.544       .  S
C2472      C2474   1.543       .  S
C2472      H2478   1.111       .  S
C2473      H2479   1.086       .  S
C2473      C2474   1.370       .  D
C2475      H2480   1.080       .  S
C2475      C2476   1.357       .  D
N2481      C2486   1.348       .  A
N2481      C2485   1.355       .  A
N2481      H2513   1.039       .  S
N2482      C2490   1.349       .  A
N2483      C2488   1.357   1_545  A
N2483      C2487   1.358       .  A
N2483      H2514   1.041       .  S
N2484      C2492   1.356       .  A
C2485      C2493   1.386       .  A
C2485      C2501   1.414       .  A
C2486      C2502   1.415       .  A
C2486      C2494   1.388       .  A
C2487      C2495   1.384   1_545  A
C2487      C2504   1.420       .  A
C2488      C2503   1.428       .  A
C2488      C2496   1.390       .  A
C2489      C2501   1.418       .  A
C2489      C2497   1.390       .  A
C2490      C2504   1.407       .  A
C2490      C2498   1.384       .  A
C2491      C2499   1.386       .  A
C2491      C2502   1.424       .  A
C2492      C2500   1.387       .  A
C2492      C2503   1.422   1_545  A
C2493      C2494   1.378       .  A
C2495      C2496   1.378       .  A
C2495      H2507   1.082       .  S
C2496      H2508   1.081       .  S
C2497      H2509   1.080       .  S
C2498      H2510   1.083       .  S
C2499      H2511   1.081       .  S
C2500      H2512   1.079       .  S
C2501      C2651   1.491       .  S
C2502      C2591   1.498       .  S
C2503      C2601   1.504       .  S
C2504      C2621   1.499       .  S
N2515      C2520   1.352       .  A
N2515      C2519   1.349       .  A
N2515      H2547   1.041       .  S
N2516      C2523   1.353       .  A
N2516      C2524   1.352       .  A
N2517      C2522   1.352       .  A
N2517      C2521   1.351       .  A
N2517      H2548   1.043       .  S
N2518      C2525   1.349       .  A
N2518      C2526   1.348       .  A
C2519      C2527   1.387       .  A
C2519      C2535   1.414       .  A
C2520      C2536   1.413       .  A
C2520      C2528   1.387       .  A
C2521      C2529   1.389       .  A
C2521      C2538   1.417       .  A
C2522      C2537   1.411       .  A
C2522      C2530   1.385       .  A
C2523      C2535   1.420       .  A
C2523      C2531   1.387       .  A
C2524      C2538   1.416       .  A
C2524      C2532   1.385       .  A
C2525      C2533   1.390       .  A
C2525      C2536   1.415       .  A
C2526      C2534   1.385       .  A
C2526      C2537   1.406       .  A
C2527      C2528   1.379       .  A
C2529      C2530   1.383       .  A
C2529      H2541   1.082       .  S
C2530      H2542   1.082       .  S
C2531      C2532   1.378       .  A
C2531      H2543   1.082       .  S
C2532      H2544   1.082       .  S
C2533      C2534   1.366       .  A
C2533      H2545   1.080       .  S
C2534      H2546   1.083       .  S
C2535      C2638   1.500       .  S
C2536      C2578   1.485       .  S
C2537      C2611   1.484       .  S
C2538      C2631   1.500       .  S
O2549     Ni2557   1.907       .  S
O2549      C2559   1.280       .  A
O2550     Ni2557   1.913       .  S
O2550      C2560   1.277       .  A
O2551     Ni2557   1.911       .  S
O2551      C2561   1.281       .  A
O2552     Ni2557   1.918       .  S
O2552      C2562   1.282       .  A
O2553     Ni2558   1.922       .  S
O2553      C2562   1.282       .  A
O2554     Ni2558   1.912       .  S
O2554      C2561   1.280       .  A
O2555     Ni2558   1.935       .  S
O2555      C2560   1.285       .  A
O2556     Ni2558   1.942       .  S
O2556      C2559   1.286       .  A
Ni2557    Ni2558   2.387       .  S
C2559      C2708   1.489       .  S
C2561      C2671   1.475       .  S
O2563     Ni2571   1.916       .  S
O2563      C2573   1.281       .  A
O2564     Ni2571   1.916       .  S
O2564      C2574   1.281       .  A
O2565     Ni2571   1.936       .  S
O2565      C2575   1.283       .  A
O2566     Ni2571   1.927       .  S
O2566      C2576   1.284       .  A
O2567     Ni2572   1.895       .  S
O2567      C2576   1.277       .  A
O2568     Ni2572   1.895       .  S
O2568      C2575   1.278       .  A
O2569     Ni2572   1.922       .  S
O2569      C2574   1.283       .  A
O2570     Ni2572   1.918       .  S
O2570      C2573   1.280       .  A
Ni2571    Ni2572   2.386       .  S
C2574      C2701   1.484   1_556  S
C2576      C2678   1.477       .  S
C2577      C2582   1.406       .  A
C2577      F2584   1.357       .  S
C2578      C2579   1.401       .  A
C2579      C2580   1.384       .  A
C2579      F2586   1.359       .  S
C2580      F2585   1.354       .  S
C2581      C2582   1.403       .  A
C2582      F2583   1.357   1_554  S
C2587      C2588   1.406       .  A
C2587      F2594   1.359   1_554  S
C2588      C2589   1.406       .  A
C2589      F2596   1.358       .  S
C2590      C2591   1.410       .  A
C2590      F2595   1.358       .  S
C2591      C2592   1.409       .  A
C2592      F2593   1.358       .  S
C2597      C2598   1.405       .  A
C2597      C2602   1.411   1_565  A
C2597      F2604   1.357   1_565  S
C2598      C2599   1.403       .  A
C2599      C2600   1.395       .  A
C2599      F2606   1.355       .  S
C2600      C2601   1.406       .  A
C2600      F2605   1.358       .  S
C2601      C2602   1.414   1_565  A
C2602      F2603   1.358       .  S
C2607      C2608   1.410       .  A
C2607      C2612   1.388       .  A
C2607      F2614   1.359       .  S
C2608      C2609   1.410       .  A
C2609      C2610   1.404       .  A
C2609      F2616   1.357       .  S
C2610      C2611   1.404       .  A
C2610      F2615   1.357       .  S
C2611      C2612   1.404       .  A
C2612      F2613   1.359       .  S
C2617      C2618   1.411   1_545  A
C2617      C2622   1.408       .  A
C2617      F2624   1.357       .  S
C2618      C2619   1.405       .  A
C2619      C2620   1.390       .  A
C2619      F2626   1.356       .  S
C2620      C2621   1.409   1_565  A
C2620      F2625   1.359       .  S
C2621      C2622   1.408       .  A
C2622      F2623   1.357       .  S
C2627      C2628   1.409       .  A
C2627      C2632   1.395       .  A
C2627      F2634   1.357       .  S
C2628      C2629   1.407       .  A
C2629      C2630   1.405       .  A
C2629      F2636   1.358       .  S
C2630      C2631   1.411       .  A
C2630      F2635   1.357       .  S
C2631      C2632   1.408       .  A
C2632      F2633   1.358       .  S
C2637      C2638   1.411       .  A
C2637      F2644   1.358       .  S
C2638      C2639   1.408       .  A
C2639      F2646   1.358       .  S
C2640      C2641   1.408   1_554  A
C2640      F2645   1.358       .  S
C2641      C2642   1.408       .  A
C2642      F2643   1.358       .  S
C2647      C2652   1.385       .  A
C2647      F2654   1.351       .  S
C2648      C2649   1.406       .  A
C2649      C2650   1.412       .  A
C2649      F2656   1.357   1_554  S
C2650      F2655   1.357       .  S
C2651      C2652   1.400       .  A
C2652      F2653   1.359       .  S
C2657      C2658   1.407       .  A
C2657      F2664   1.358       .  S
C2658      C2659   1.407       .  A
C2659      F2666   1.358   1_455  S
C2660      C2661   1.407       .  A
C2660      F2665   1.356       .  S
C2661      C2662   1.410   1_556  A
C2662      F2663   1.358       .  S
C2667      C2668   1.404       .  A
C2667      C2672   1.401       .  A
C2667      F2674   1.358       .  S
C2668      C2669   1.406       .  A
C2669      C2670   1.390       .  A
C2669      F2676   1.359       .  S
C2670      C2671   1.406       .  A
C2670      F2675   1.357       .  S
C2671      C2672   1.409       .  A
C2672      F2673   1.357       .  S
C2677      C2678   1.410       .  A
C2677      C2682   1.391   1_556  A
C2677      F2684   1.358       .  S
C2679      C2680   1.401       .  A
C2679      F2686   1.358       .  S
C2680      C2681   1.412       .  A
C2680      F2685   1.358       .  S
C2682      F2683   1.358       .  S
C2687      C2688   1.410       .  A
C2687      F2694   1.358       .  S
C2689      C2690   1.400       .  A
C2689      F2696   1.357   1_565  S
C2690      C2691   1.412       .  A
C2690      F2695   1.358   1_565  S
C2691      C2692   1.404       .  A
C2692      F2693   1.358   1_455  S
C2697      C2702   1.403       .  A
C2697      F2704   1.357   1_565  S
C2698      C2699   1.408       .  A
C2699      C2700   1.396       .  A
C2699      F2706   1.359       .  S
C2700      F2705   1.356       .  S
C2701      C2702   1.408       .  A
C2702      F2703   1.357       .  S
C2707      C2708   1.410       .  A
C2707      C2712   1.410       .  A
C2707      F2714   1.357       .  S
C2708      C2709   1.409       .  A
C2709      C2710   1.392       .  A
C2709      F2716   1.357       .  S
C2710      C2711   1.406       .  A
C2710      F2715   1.359       .  S
C2711      C2712   1.411       .  A
C2712      F2713   1.358       .  S
C2717      C2718   1.406       .  A
C2717      C2722   1.390       .  A
C2717      F2724   1.358       .  S
C2718      C2719   1.406       .  A
C2719      C2720   1.406       .  A
C2719      F2726   1.357       .  S
C2720      C2721   1.410       .  A
C2720      F2725   1.357       .  S
C2721      C2722   1.408       .  A
C2722      F2723   1.359       .  S
C2727      C2728   1.411       .  A
C2727      C2732   1.402       .  A
C2727      F2734   1.358       .  S
C2728      C2729   1.407       .  A
C2729      C2730   1.394       .  A
C2729      F2736   1.358       .  S
C2730      C2731   1.409       .  A
C2730      F2735   1.358       .  S
C2731      C2732   1.405       .  A
C2732      F2733   1.358       .  S
