geometry optimzed in LAMMPS
_audit_creation_date              2020-12-01 
_audit_creation_method            'lammps2cif' 
_symmetry_space_group_name_H-M    'P1' 
_symmetry_Int_Tables_number       1 
_symmetry_cell_setting            triclinic 
loop_ 
_symmetry_equiv_pos_as_xyz 
  x,y,z 
_cell_length_a                    28.84092758 
_cell_length_b                    28.982656564089496 
_cell_length_c                    28.85871262946176 
_cell_angle_alpha                 89.98557273047602 
_cell_angle_beta                  89.48190285959897 
_cell_angle_gamma                 89.88225056494475 
loop_ 
_atom_site_label 
_atom_site_type_symbol 
_atom_site_fract_x 
_atom_site_fract_y 
_atom_site_fract_z 
_atom_site_charge 
O1          O  0.24004484  0.62387125  0.49321409    -0.81000
C2          C  0.09050766  0.57484142  0.60724575     0.98400
O3          O  0.12114253  0.60368519  0.62083812    -0.70100
O4          O  0.20786645  0.58011350  0.60925020    -0.73700
Al5        Al  0.17483261  0.63056613  0.58646971     1.49000
C6          C  0.23464876  0.55131181  0.59085519     0.93600
O7          O  0.16791782  0.51615226  0.49760552    -0.79900
O8          O  0.11640900  0.63997798  0.46386915    -0.73500
Al9        Al  0.20130990  0.57307944  0.49837563     1.90100
O10         O  0.10138987  0.54795584  0.48098314    -0.72500
O11         O  0.08057713  0.66073297  0.54499871    -0.72400
O12         O  0.08204955  0.56970211  0.56495295    -0.78000
O13         O  0.14413831  0.68759543  0.57375626    -0.76200
O14         O  0.15943652  0.60284161  0.53390064    -1.12400
O15         O  0.23101934  0.65995171  0.55982637    -0.71600
C16         C  0.25204296  0.65477422  0.52104242     0.99200
C17         C  0.12759554  0.51307869  0.48158328     0.95600
Al18       Al  0.10053982  0.60467540  0.51548595     1.55600
O19         O  0.23763376  0.54762229  0.54749427    -0.76200
C20         C  0.10239209  0.69330594  0.56325247     0.99700
C21         C  0.14137609  0.62183276  0.43306203     0.94600
O22         O  0.17331720  0.59313146  0.44231506    -0.81500
O23         O  0.12323833  0.49603172  0.24289923    -0.81000
C24         C  0.16627921  0.65881797  0.14800006     0.98400
O25         O  0.14030429  0.62727829  0.13100062    -0.70100
O26         O  0.15989088  0.53773165  0.13106748    -0.73700
Al27       Al  0.11195823  0.57162246  0.16016303     1.49000
C28         C  0.19097436  0.51169074  0.14604477     0.93600
O29         O  0.23037715  0.56867471  0.24606102    -0.79900
O30         O  0.10780035  0.61376451  0.29068916    -0.73500
Al31       Al  0.17340991  0.53555003  0.24198412     1.90100
O32         O  0.19837732  0.63243516  0.27060575    -0.72500
O33         O  0.08178711  0.65930350  0.21726027    -0.72400
O34         O  0.17150438  0.66252199  0.19107785    -0.78000
O35         O  0.05610390  0.60258571  0.17646361    -0.76200
O36         O  0.14182100  0.58097048  0.21335255    -1.12400
O37         O  0.08023503  0.51592399  0.18346686    -0.71600
C38         C  0.08802039  0.49028599  0.21848788     0.99200
C39         C  0.23354085  0.60683184  0.26631791     0.95600
Al40       Al  0.13992159  0.63660114  0.23983956     1.55600
O41         O  0.19806417  0.50803043  0.18862810    -0.76200
C42         C  0.04970622  0.64121044  0.19469928     0.99700
C43         C  0.12445111  0.58296525  0.31629393     0.94600
O44         O  0.15388459  0.55384443  0.30200432    -0.81500
O45         O  0.24661876  0.09029757  0.50408097    -0.81000
C46         C  0.15954431  0.15682297  0.67107745     0.98400
O47         O  0.13939703  0.13031279  0.64217374    -0.70100
O48         O  0.13980950  0.15704221  0.55550528    -0.73700
Al49       Al  0.16160389  0.10271046  0.58291827     1.49000
C50         C  0.15570485  0.17734220  0.52056567     0.93600
O51         O  0.25708607  0.20487418  0.56750201    -0.79900
O52         O  0.29217951  0.08228286  0.61900625    -0.73500
Al53       Al  0.24994431  0.14605614  0.53851005     1.90100
O54         O  0.28249170  0.17631153  0.63310257    -0.72500
O55         O  0.21713133  0.06636637  0.66687658    -0.72400
O56         O  0.20298677  0.15996732  0.67084743    -0.78000
O57         O  0.17393796  0.04414923  0.60970723    -0.76200
O58         O  0.21887934  0.12326393  0.58794595    -1.12400
O59         O  0.17453372  0.07287114  0.52332743    -0.71600
C60         C  0.21045136  0.06703277  0.49764908     0.99200
C61         C  0.27581983  0.21031464  0.60647125     0.95600
Al62       Al  0.24648422  0.12117610  0.64269226     1.55600
O63         O  0.19713553  0.17118025  0.50754682    -0.76200
C64         C  0.19195132  0.03623534  0.64832142     0.99700
C65         C  0.32084045  0.09777946  0.59009455     0.94600
O66         O  0.30917292  0.12588375  0.55885435    -0.81500
O67         O  0.49098979  0.22125370  0.65554837    -0.81000
C68         C  0.60412134  0.07310134  0.59967934     0.98400
O69         O  0.61838731  0.10370358  0.62819477    -0.70100
O70         O  0.60843104  0.18879489  0.59624153    -0.73700
Al71       Al  0.58632356  0.16118838  0.65072883     1.49000
C72         C  0.59016128  0.22169793  0.57468671     0.93600
O73         O  0.49830200  0.16401178  0.54021089    -0.79900
O74         O  0.46033987  0.10527953  0.66043771    -0.73500
Al75       Al  0.49712203  0.19113690  0.59977347     1.90100
O76         O  0.48109933  0.09471737  0.56628274    -0.72500
O77         O  0.54041558  0.07063191  0.68281215    -0.72400
O78         O  0.56193562  0.07055831  0.59046949    -0.78000
O79         O  0.57122979  0.13393321  0.70962689    -0.76200
O80         O  0.53242672  0.14744405  0.62521109    -1.12400
O81         O  0.56419090  0.22208815  0.67612449    -0.71600
C82         C  0.52328479  0.23940480  0.67778000     0.99200
C83         C  0.48257594  0.12408320  0.53364464     0.95600
Al84       Al  0.51256771  0.08994074  0.62522827     1.55600
O85         O  0.54741585  0.23042772  0.57912739    -0.76200
C86         C  0.55931434  0.09239304  0.71549109     0.99700
C87         C  0.42958261  0.12869974  0.64124629     0.94600
O88         O  0.43955440  0.16170732  0.61427688    -0.81500
O89         O  0.64854860  0.46334104  0.22336269    -0.81000
C90         C  0.58718451  0.58810874  0.08885016     0.98400
O91         O  0.61496789  0.60024744  0.12059417    -0.70100
O92         O  0.58179543  0.57843618  0.20298106    -0.73700
Al93       Al  0.63862301  0.56355790  0.17290445     1.49000
C94         C  0.56051837  0.55417025  0.23250192     0.93600
O95         O  0.53379633  0.46819142  0.16154500    -0.79900
O96         O  0.65632234  0.44480135  0.10037713    -0.73500
Al97       Al  0.59298289  0.46843293  0.19082025     1.90100
O98         O  0.56242901  0.46286764  0.09092117    -0.72500
O99         O  0.67617727  0.52906369  0.07742378    -0.72400
O100        O  0.58329086  0.54663415  0.07766679    -0.78000
O101        O  0.69920154  0.55623394  0.14404980    -0.76200
O102        O  0.61722103  0.50997550  0.15191020    -1.12400
O103        O  0.66398149  0.53717774  0.23110650    -0.71600
C104        C  0.66739603  0.49564222  0.24545782     0.99200
C105        C  0.52895485  0.45833873  0.11924326     0.95600
Al106      Al  0.61959810  0.49715099  0.09169732     1.55600
O107        O  0.56772055  0.51137501  0.23489050    -0.76200
C108        C  0.70727606  0.54729284  0.10170558     0.99700
C109        C  0.63833512  0.41119705  0.12078814     0.94600
O110        O  0.61195054  0.41653392  0.15556507    -0.81500
O111        O  0.50280207  0.23039238  0.12582138    -0.81000
C112        C  0.66614693  0.14649386  0.18357358     0.98400
O113        O  0.63686931  0.12554283  0.15745222    -0.70100
O114        O  0.54690554  0.12747715  0.17591440    -0.73700
Al115      Al  0.58067529  0.14890891  0.12425533     1.49000
C116        C  0.52135578  0.14571671  0.20609985     0.93600
O117        O  0.57902254  0.25045336  0.22723905    -0.79900
O118        O  0.62254294  0.27195938  0.09751457    -0.73500
Al119      Al  0.54415854  0.23799541  0.17339115     1.90100
O120        O  0.64003558  0.27453905  0.18976528    -0.72500
O121        O  0.67128911  0.19655165  0.08953299    -0.72400
O122        O  0.66993304  0.18985368  0.18272240    -0.78000
O123        O  0.61209222  0.15800530  0.06617403    -0.76200
O124        O  0.58946147  0.20511864  0.14610142    -1.12400
O125        O  0.52392702  0.16655492  0.09008878    -0.71600
C126        C  0.49678780  0.20123520  0.09451377     0.99200
C127        C  0.61620057  0.27268477  0.22637985     0.95600
Al128      Al  0.64550005  0.23067209  0.14033517     1.55600
O129        O  0.51687461  0.18884765  0.20815948    -0.76200
C130        C  0.65218404  0.17309287  0.05882656     0.99700
C131        C  0.59219221  0.30104424  0.10913511     0.94600
O132        O  0.56300236  0.29372994  0.14174149    -0.81500
O133        O  0.74284585  0.85044119  0.50824778    -0.81000
C134        C  0.58616696  0.90683111  0.40887287     0.98400
O135        O  0.61879781  0.88319106  0.38973616    -0.70100
O136        O  0.70691499  0.90499889  0.39703287    -0.73700
Al137      Al  0.67430095  0.85268767  0.41764934     1.49000
C138        C  0.73520461  0.93150620  0.41592719     0.93600
O139        O  0.67279081  0.95939265  0.51407526    -0.79900
O140        O  0.62527450  0.83289136  0.54521979    -0.73500
Al141      Al  0.70558624  0.90247864  0.50849815     1.90100
O142        O  0.60699638  0.92632207  0.53294650    -0.72500
O143        O  0.58425196  0.81444009  0.46697895    -0.72400
O144        O  0.58018188  0.90602096  0.45189915    -0.78000
O145        O  0.64381361  0.79475150  0.42531609    -0.76200
O146        O  0.66169657  0.87513581  0.47371305    -1.12400
O147        O  0.73119569  0.81998180  0.43917923    -0.71600
C148        C  0.75274143  0.82098058  0.47785242     0.99200
C149        C  0.63290291  0.96155442  0.53201995     0.95600
Al150      Al  0.60451610  0.87010673  0.49715934     1.55600
O151        O  0.74058180  0.93048345  0.45910737    -0.76200
C152        C  0.60410990  0.78578822  0.44092218     0.99700
C153        C  0.64973853  0.85097413  0.57578837     0.94600
O154        O  0.68034975  0.88078655  0.56606860    -0.81500
O155        O  0.62047707  0.98193670  0.76158848    -0.81000
C156        C  0.66462290  0.81980566  0.85523478     0.98400
O157        O  0.63660860  0.84985521  0.87239726    -0.70100
O158        O  0.65946476  0.93760059  0.87078628    -0.73700
Al159      Al  0.60909962  0.90609072  0.84423535     1.49000
C160        C  0.69205949  0.96134482  0.85464153     0.93600
O161        O  0.72465541  0.90547971  0.75145310    -0.79900
O162        O  0.59931700  0.86139087  0.71672225    -0.73500
Al163      Al  0.66884471  0.94007772  0.75939689     1.90100
O164        O  0.69040845  0.84276460  0.72892368    -0.72500
O165        O  0.57937622  0.81647634  0.79386011    -0.72400
O166        O  0.67033932  0.81591641  0.81208950    -0.78000
O167        O  0.55183362  0.87621651  0.82943357    -0.76200
O168        O  0.63758833  0.89577204  0.79014243    -1.12400
O169        O  0.57859813  0.96321526  0.82271002    -0.71600
C170        C  0.58651029  0.98919619  0.78786135     0.99200
C171        C  0.72597769  0.86767679  0.73043983     0.95600
Al172      Al  0.63490976  0.83957974  0.76530110     1.55600
O173        O  0.69742777  0.96622655  0.81167541    -0.76200
C174        C  0.54684270  0.83547187  0.81568861     0.99700
C175        C  0.61577468  0.89075037  0.68896967     0.94600
O176        O  0.64504864  0.92103512  0.70093083    -0.81500
O177        O  0.25829255  0.88087456  0.01203659    -0.81000
C178        C  0.35582144  0.82927249  0.16913296     0.98400
O179        O  0.37327775  0.85630818  0.13847835    -0.70100
O180        O  0.36946934  0.83827027  0.04923570    -0.73700
Al181      Al  0.34421622  0.88694862  0.08456706     1.49000
C182        C  0.35254448  0.80807030  0.02348354     0.93600
O183        O  0.25303003  0.77325420  0.08330331    -0.79900
O184        O  0.21593504  0.89643316  0.13264869    -0.73500
Al185      Al  0.25803245  0.83023989  0.05083122     1.90100
O186        O  0.23117946  0.80444881  0.14864607    -0.72500
O187        O  0.29239301  0.91618558  0.17588916    -0.72400
O188        O  0.31274229  0.82612347  0.17509158    -0.78000
O189        O  0.33193485  0.94292900  0.11793184    -0.76200
O190        O  0.28982192  0.85947150  0.09555315    -1.12400
O191        O  0.32136785  0.91989513  0.02944987    -0.71600
C192        C  0.28539482  0.91389947  0.00473500     0.99200
C193        C  0.23437678  0.76972859  0.12255438     0.95600
Al194      Al  0.26539326  0.86093641  0.15253175     1.55600
O195        O  0.30947996  0.80366369  0.02001443    -0.76200
C196        C  0.31603685  0.94787269  0.15824234     0.99700
C197        C  0.18751994  0.87989299  0.10457378     0.94600
O198        O  0.19925453  0.85135542  0.07333492    -0.81500
O199        O  0.00347170  0.75259660  0.13848397    -0.81000
C200        C  0.90597991  0.91161522  0.09476912     0.98400
O201        O  0.88881739  0.88089442  0.12190446    -0.70100
O202        O  0.89186250  0.79325469  0.10006974    -0.73700
Al203      Al  0.91796199  0.82562475  0.14988004     1.49000
C204        C  0.90812904  0.76918879  0.06785299     0.93600
O205        O  0.00745807  0.82870540  0.03411731    -0.79900
O206        O  0.04551631  0.87141693  0.15951049    -0.73500
Al207      Al  0.00310042  0.79350904  0.08956329     1.90100
O208        O  0.03141261  0.89112836  0.06836184    -0.72500
O209        O  0.96783095  0.91546270  0.18010757    -0.72400
O210        O  0.94908253  0.91684385  0.09031064    -0.78000
O211        O  0.93112602  0.85621393  0.20691265    -0.76200
O212        O  0.97186511  0.83697655  0.12149602    -1.12400
O213        O  0.94143685  0.76937844  0.18041980    -0.71600
C214        C  0.97749981  0.74487059  0.17262688     0.99200
C215        C  0.02695903  0.86729429  0.03231091     0.95600
Al216      Al  0.99623842  0.89327499  0.12465539     1.55600
O217        O  0.95115377  0.76495395  0.06237632    -0.76200
C218        C  0.94436200  0.89706327  0.21167798     0.99700
C219        C  0.07379907  0.84360310  0.14127407     0.94600
O220        O  0.06194845  0.81417078  0.11110282    -0.81500
O221        O  0.37008558  0.99225946  0.27701897    -0.81000
C222        C  0.40118788  0.09568285  0.43676399     0.98400
O223        O  0.37267286  0.10968795  0.40599522    -0.70100
O224        O  0.40174648  0.10954336  0.31940683    -0.73700
Al225      Al  0.35168986  0.07827979  0.34864694     1.49000
C226        C  0.43349944  0.09519467  0.29308374     0.93600
O227        O  0.47387188  0.00018747  0.35305243    -0.79900
O228        O  0.35246998  0.94922439  0.39665812    -0.73500
Al229      Al  0.41863076  0.99863626  0.31814112     1.90100
O230        O  0.44164454  0.97511376  0.41705947    -0.72500
O231        O  0.31933146  0.02451608  0.43785918    -0.72400
O232        O  0.40870801  0.05348252  0.44278392    -0.78000
O233        O  0.29485978  0.05599115  0.37462824    -0.76200
O234        O  0.38366339  0.02717407  0.36129604    -1.07600
O235        O  0.32747791  0.05420317  0.28947644    -0.71600
C236        C  0.33685186  0.01787937  0.26616465     0.99200
C237        C  0.47709984  0.98019166  0.39144687     0.95600
Al238      Al  0.38065912  0.00306438  0.41839434     1.55600
O239        O  0.44035574  0.05261646  0.28794583    -0.76200
C240        C  0.28619703  0.03820546  0.41340675     0.99700
C241        C  0.37453558  0.92312586  0.36950831     0.94600
O242        O  0.40369975  0.93842418  0.34021829    -0.81500
O243        O  0.50940198  0.71156806  0.36619831    -0.81000
C244        C  0.34550618  0.62398426  0.33463508     0.98400
O245        O  0.38745695  0.61156651  0.34064005    -0.70100
O246        O  0.47884322  0.62863893  0.33573600    -0.73700
Al247      Al  0.43087999  0.64397250  0.38120337     1.49000
C248        C  0.48619067  0.64474982  0.29541002     0.93600
O249        O  0.42080635  0.75837475  0.28263443    -0.79900
O250        O  0.37453314  0.78019223  0.36843456    -0.73500
Al251      Al  0.45948410  0.73098110  0.32793592     1.90100
O252        O  0.35375386  0.72528366  0.29525666    -0.72500
O253        O  0.35317882  0.71337015  0.42740784    -0.72400
O254        O  0.33025248  0.66022756  0.35345311    -0.78000
O255        O  0.38596088  0.64541547  0.43123827    -0.76200
O256        O  0.41578114  0.69783366  0.35681056    -1.12400
O257        O  0.47453541  0.67510147  0.42292906    -0.71600
C258        C  0.50675435  0.70179552  0.40865095     0.99200
C259        C  0.38051684  0.74880248  0.26975780     0.95600
Al260      Al  0.35786798  0.71827452  0.36083268     1.55600
O261        O  0.47152044  0.68410636  0.28457941    -0.76200
C262        C  0.35886917  0.67547267  0.44828086     0.99700
C263        C  0.41233567  0.80111993  0.37385471     0.94600
O264        O  0.45091814  0.78139277  0.36815512    -0.81500
O265        O  0.50553833  0.71792532  0.87349484    -0.81000
C266        C  0.39314685  0.56455299  0.91990744     0.98400
O267        O  0.38016610  0.59540235  0.89095476    -0.70100
O268        O  0.38438870  0.68285815  0.91822922    -0.73700
Al269      Al  0.41291119  0.65192076  0.86785481     1.49000
C270        C  0.40070512  0.71432931  0.94303952     0.93600
O271        O  0.49033268  0.65665900  0.98630055    -0.79900
O272        O  0.54054157  0.59948037  0.86996911    -0.73500
Al273      Al  0.49592550  0.68481656  0.92752055     1.90100
O274        O  0.51388451  0.58883550  0.96175143    -0.72500
O275        O  0.46338962  0.56084914  0.84239437    -0.72400
O276        O  0.43462393  0.56266417  0.93248217    -0.78000
O277        O  0.43284861  0.62240488  0.81203035    -0.76200
O278        O  0.46461198  0.64011548  0.89863988    -1.12400
O279        O  0.43758759  0.70988522  0.84000719    -0.71600
C280        C  0.47699907  0.72982198  0.84320927     0.99200
C281        C  0.50748408  0.61762017  0.99421370     0.95600
Al282      Al  0.48629376  0.58288651  0.90120844     1.55600
O283        O  0.44370435  0.72152705  0.94416890    -0.76200
C284        C  0.44586792  0.58113601  0.80809455     0.99700
C285        C  0.56863145  0.62609156  0.88917311     0.94600
O286        O  0.55549558  0.65757980  0.91675064    -0.81500
O287        O  0.78744336  0.61955066  0.00847725    -0.81000
C288        C  0.86476244  0.65108475  0.83872345     0.98400
O289        O  0.88018470  0.64190114  0.87909983    -0.70100
O290        O  0.86976781  0.64394744  0.97119957    -0.73700
Al291      Al  0.84926060  0.60190881  0.92480485     1.49000
C292        C  0.85790741  0.68476148  0.98054673     0.93600
O293        O  0.73960584  0.70708544  0.92386526    -0.79900
O294        O  0.71102196  0.61528223  0.88036774    -0.73500
Al295      Al  0.76719107  0.65975674  0.96028372     1.90100
O296        O  0.76112938  0.68925729  0.85334703    -0.72500
O297        O  0.77668256  0.55827353  0.85041347    -0.72400
O298        O  0.82648625  0.63508413  0.82555646    -0.78000
O299        O  0.84515239  0.55326239  0.88073431    -0.76200
O300        O  0.79546700  0.62883808  0.91381178    -1.12400
O301        O  0.81837579  0.56140868  0.97071002    -0.71600
C302        C  0.79420124  0.57676344  0.00479673     0.99200
C303        C  0.74294635  0.71702844  0.88168497     0.95600
Al304      Al  0.77071360  0.62472537  0.85762119     1.55600
O305        O  0.81846312  0.69972088  0.96927869    -0.76200
C306        C  0.81463511  0.53700688  0.85462150     0.99700
C307        C  0.69180189  0.61441138  0.91971423     0.94600
O308        O  0.71324656  0.62369012  0.95633485    -0.81500
O309        O  0.25040165  0.33657203  0.00722840    -0.81000
C310        C  0.41870309  0.38790877  0.09643392     0.98400
O311        O  0.38817567  0.36232417  0.11570522    -0.70100
O312        O  0.30364429  0.39480966  0.11465489    -0.73700
Al313      Al  0.32841113  0.33918476  0.09213081     1.49000
C314        C  0.27293968  0.42028147  0.09787244     0.93600
O315        O  0.32382765  0.44501721  0.99550340    -0.79900
O316        O  0.36825044  0.31845670  0.96147840    -0.73500
Al317      Al  0.29027266  0.38831752  0.00413522     1.90100
O318        O  0.38793925  0.41092015  0.97267568    -0.72500
O319        O  0.41297574  0.29961914  0.03852305    -0.72400
O320        O  0.42005745  0.39217239  0.05308867    -0.78000
O321        O  0.35276562  0.27890103  0.07919771    -0.76200
O322        O  0.33677288  0.36090054  0.03537876    -1.12400
O323        O  0.26745794  0.31397330  0.07792282    -0.71600
C324        C  0.24140079  0.31262816  0.04240423     0.99200
C325        C  0.36290717  0.44666529  0.97558736     0.95600
Al326      Al  0.39234660  0.35549768  0.00866878     1.55600
O327        O  0.26110838  0.41652465  0.05617206    -0.76200
C328        C  0.39267444  0.27013611  0.06341619     0.99700
C329        C  0.34059225  0.33677595  0.93362125     0.94600
O330        O  0.31032557  0.36578027  0.94645783    -0.81500
O331        O  0.37869971  0.47658777  0.75299368    -0.81000
C332        C  0.33044313  0.32520951  0.64117878     0.98400
O333        O  0.36737375  0.34902944  0.63458433    -0.70100
O334        O  0.35472988  0.44113561  0.63404522    -0.73700
Al335      Al  0.39358280  0.40174452  0.67046314     1.49000
C336        C  0.32394954  0.47014090  0.64558532     0.93600
O337        O  0.26197985  0.42418361  0.73949417    -0.79900
O338        O  0.36224047  0.35007321  0.79104821    -0.73500
Al339      Al  0.32428215  0.44524088  0.74320985     1.90100
O340        O  0.27559822  0.35381040  0.76039601    -0.72500
O341        O  0.39015317  0.30850340  0.71697562    -0.72400
O342        O  0.30731725  0.32943243  0.67825111    -0.78000
O343        O  0.43966942  0.36255511  0.70058243    -0.76200
O344        O  0.35122249  0.39660933  0.71596932    -1.12400
O345        O  0.42678194  0.45385232  0.69862007    -0.71600
C346        C  0.41710701  0.47950480  0.73306753     0.99200
C347        C  0.24835156  0.38733366  0.75744763     0.95600
Al348      Al  0.33521607  0.34063450  0.73461919     1.55600
O349        O  0.31280748  0.47625371  0.68747225    -0.76200
C350        C  0.43148374  0.32145701  0.71259537     0.99700
C351        C  0.35222605  0.38326979  0.81736732     0.94600
O352        O  0.33294689  0.42011136  0.80345585    -0.81500
O353        O  0.02283170  0.23692445  0.89274325    -0.81000
C354        C  0.16748255  0.35805259  0.84958990     0.98400
O355        O  0.13722762  0.36809601  0.88060742    -0.70100
O356        O  0.05227876  0.35644403  0.85232540    -0.73700
Al357      Al  0.08419212  0.33091053  0.90313914     1.49000
C358        C  0.02705419  0.33827171  0.82212185     0.93600
O359        O  0.09650781  0.24650419  0.78395364    -0.79900
O360        O  0.14950910  0.20991778  0.90545511    -0.73500
Al361      Al  0.06250516  0.24527738  0.84138372     1.90100
O362        O  0.16426030  0.23378146  0.81472313    -0.72500
O363        O  0.17972084  0.29071674  0.93426631    -0.72400
O364        O  0.17913714  0.31698053  0.84203779    -0.78000
O365        O  0.11208776  0.31175378  0.95953970    -0.76200
O366        O  0.10260914  0.28061059  0.87257700    -1.12400
O367        O  0.02798961  0.30287238  0.92963804    -0.71600
C368        C  0.00934490  0.26354477  0.92448471     0.99200
C369        C  0.13763635  0.23209232  0.78023552     0.95600
Al370      Al  0.16273672  0.26464706  0.87402340     1.55600
O371        O  0.02554919  0.29498182  0.81748212    -0.76200
C372        C  0.15252616  0.29811597  0.96784175     0.99700
C373        C  0.12488732  0.17963411  0.88676302     0.94600
O374        O  0.09226454  0.18946791  0.85924018    -0.81500
O375        O  0.13418499  0.98863158  0.75959720    -0.81000
C376        C  0.09792987  0.89629359  0.92450144     0.98400
O377        O  0.12384084  0.87934426  0.89252308    -0.70100
O378        O  0.09808734  0.87956644  0.80547862    -0.73700
Al379      Al  0.14902351  0.90730350  0.83526851     1.49000
C380        C  0.06489078  0.89506363  0.78247533     0.93600
O381        O  0.03241614  0.99717337  0.83996004    -0.79900
O382        O  0.15808238  0.03661742  0.87771715    -0.73500
Al383      Al  0.08700587  0.99028929  0.80298085     1.90100
O384        O  0.06834459  0.02093592  0.90141358    -0.72500
O385        O  0.18300577  0.96158150  0.92209359    -0.72400
O386        O  0.09288915  0.93929171  0.92909729    -0.78000
O387        O  0.20698953  0.92289085  0.86254965    -0.76200
O388        O  0.12044143  0.96102003  0.84643160    -1.12400
O389        O  0.17747409  0.92871771  0.77717679    -0.71600
C390        C  0.16844416  0.96320593  0.75150347     0.99200
C391        C  0.03199069  0.01839724  0.87777896     0.95600
Al392      Al  0.12527835  0.98703586  0.90220981     1.55600
O393        O  0.05866972  0.93766479  0.77826267    -0.76200
C394        C  0.21446543  0.93934641  0.90190241     0.99700
C395        C  0.14083947  0.06267153  0.84746242     0.94600
O396        O  0.11005266  0.04932499  0.81955693    -0.81500
O397        O  0.00837758  0.77394325  0.63302587    -0.81000
C398        C  0.83861075  0.84978207  0.66046048     0.98400
O399        O  0.87924814  0.86514467  0.65198799    -0.70100
O400        O  0.97121348  0.85536567  0.65536270    -0.73700
Al401      Al  0.92524036  0.83351441  0.61322174     1.49000
C402        C  0.97951488  0.84452702  0.69680210     0.93600
O403        O  0.92331964  0.72692290  0.72154932    -0.79900
O404        O  0.88140061  0.69562720  0.63037802    -0.73500
Al405      Al  0.96004698  0.75386093  0.67372150     1.90100
O406        O  0.85249176  0.74630672  0.70357897    -0.72500
O407        O  0.85259544  0.75888674  0.57054423    -0.72400
O408        O  0.82626392  0.81075643  0.64564218    -0.78000
O409        O  0.88193866  0.82757869  0.56414347    -0.76200
O410        O  0.91398688  0.78049742  0.64173243    -1.12400
O411        O  0.97104552  0.80205476  0.57358106    -0.71600
C412        C  0.00473094  0.77867499  0.58980559     0.99200
C413        C  0.88093890  0.72850421  0.73149017     0.95600
Al414      Al  0.85821760  0.75496594  0.63777107     1.55600
O415        O  0.96748156  0.80578221  0.71258095    -0.76200
C416        C  0.85704698  0.79600822  0.54799680     0.99700
C417        C  0.92084414  0.67693171  0.63062243     0.94600
O418        O  0.95728896  0.69915499  0.63892357    -0.81500
O419        O  0.87252582  0.49135085  0.73826034    -0.81000
C420        C  0.91824737  0.37973425  0.58346138     0.98400
O421        O  0.88820942  0.36752773  0.61411563    -0.70100
O422        O  0.91367415  0.37082811  0.70277415    -0.73700
Al423      Al  0.86457854  0.40047859  0.67066626     1.49000
C424        C  0.94048662  0.38651884  0.73302927     0.93600
O425        O  0.98551636  0.47725751  0.67486891    -0.79900
O426        O  0.86984069  0.52682422  0.61818034    -0.73500
Al427      Al  0.92648104  0.48194884  0.70383726     1.90100
O428        O  0.96113929  0.50013473  0.60693316    -0.72500
O429        O  0.84137395  0.45083054  0.57870176    -0.72400
O430        O  0.93089001  0.42105192  0.58052262    -0.78000
O431        O  0.80967540  0.42137466  0.64050289    -0.76200
O432        O  0.89708672  0.45123333  0.65887335    -1.12400
O433        O  0.83573187  0.42567315  0.72834415    -0.71600
C434        C  0.84016337  0.46442371  0.74901897     0.99200
C435        C  0.99351316  0.49465101  0.63573072     0.95600
Al436      Al  0.90036584  0.47282097  0.60121625     1.55600
O437        O  0.94342713  0.42936727  0.73968122    -0.76200
C438        C  0.80628027  0.43462954  0.59917766     0.99700
C439        C  0.88895443  0.55455523  0.64521098     0.94600
O440        O  0.91574807  0.54133356  0.67711730    -0.81500
O441        O  0.00841741  0.24084106  0.35402057    -0.81000
C442        C  0.10103718  0.40612292  0.40793100     0.98400
O443        O  0.11857483  0.37734896  0.37906518    -0.70100
O444        O  0.12071920  0.29046362  0.40462704    -0.73700
Al445      Al  0.09322447  0.31916308  0.35340163     1.49000
C446        C  0.10562123  0.25900524  0.43033272     0.93600
O447        O  0.00474102  0.30854256  0.46665974    -0.79900
O448        O  0.96217296  0.35883891  0.34514351    -0.73500
Al449      Al  0.00911560  0.27812389  0.40794262     1.90100
O450        O  0.97809441  0.37346753  0.43858263    -0.72500
O451        O  0.03757204  0.40559032  0.32354350    -0.72400
O452        O  0.05802635  0.40690039  0.41551652    -0.78000
O453        O  0.07562836  0.34678499  0.29624971    -0.76200
O454        O  0.03835767  0.32587975  0.38058292    -1.12400
O455        O  0.07644811  0.26041461  0.32502565    -0.71600
C456        C  0.04093844  0.23414019  0.32561930     0.99200
C457        C  0.98455408  0.34670119  0.47256639     0.95600
Al458      Al  0.01124343  0.38121428  0.38046482     1.55600
O459        O  0.06323868  0.24848364  0.43070696    -0.76200
C460        C  0.05979559  0.38678279  0.29086782     0.99700
C461        C  0.93564299  0.32924167  0.36266548     0.94600
O462        O  0.94979401  0.29861914  0.39046231    -0.81500
O463        O  0.75025184  0.36721553  0.49778155    -0.81000
C464        C  0.64206565  0.31051399  0.34842423     0.98400
O465        O  0.63444060  0.34752502  0.37146592    -0.70100
O466        O  0.63299710  0.34199065  0.46401875    -0.73700
Al467      Al  0.66951993  0.37791002  0.42123121     1.49000
C468        C  0.64409763  0.31208712  0.49375915     0.93600
O469        O  0.73793919  0.24904532  0.45059569    -0.79900
O470        O  0.79184856  0.34543897  0.37242582    -0.73500
Al471      Al  0.74149690  0.31176387  0.46883009     1.90100
O472        O  0.76209239  0.25919313  0.38026263    -0.72500
O473        O  0.71767851  0.36840293  0.32772651    -0.72400
O474        O  0.67931556  0.28784887  0.35258935    -0.78000
O475        O  0.69749347  0.42144741  0.37705670    -0.76200
O476        O  0.71534764  0.33594782  0.41839424    -1.12400
O477        O  0.69826472  0.41494343  0.47070340    -0.71600
C478        C  0.73150972  0.40597540  0.49797397     0.99200
C479        C  0.75823581  0.23407496  0.41533037     0.95600
Al480      Al  0.73557789  0.31695437  0.36340051     1.55600
O481        O  0.68575501  0.30108325  0.49973984    -0.76200
C482        C  0.70831124  0.40975654  0.33612580     0.99700
C483        C  0.81729690  0.33724976  0.40679187     0.94600
O484        O  0.80225560  0.31975318  0.44427115    -0.81500
O485        O  0.88054626  0.01549434  0.25970182    -0.81000
C486        C  0.85198055  0.16178830  0.38181311     0.98400
O487        O  0.88292184  0.13131542  0.38925811    -0.70100
O488        O  0.85420638  0.04607537  0.38243009    -0.73700
Al489      Al  0.90193627  0.07893885  0.35056627     1.49000
C490        C  0.82171445  0.02142261  0.36763669     0.93600
O491        O  0.77476290  0.08953683  0.27937444    -0.79900
O492        O  0.89067812  0.14148090  0.22642283    -0.73500
Al493      Al  0.83105905  0.05577324  0.27241031     1.90100
O494        O  0.80406224  0.15674038  0.26185660    -0.72500
O495        O  0.92927387  0.17342236  0.30350940    -0.72400
O496        O  0.84117251  0.17363124  0.34143815    -0.78000
O497        O  0.95645430  0.10752585  0.32598609    -0.76200
O498        O  0.86641600  0.09640633  0.30308230    -1.12400
O499        O  0.92563426  0.02363803  0.32010274    -0.71600
C500        C  0.91538012  0.00343062  0.28259479     0.99200
C501        C  0.76982205  0.12971657  0.26380096     0.95600
Al502      Al  0.86639582  0.15590365  0.28538879     1.55600
O503        O  0.81223785  0.02088169  0.32511762    -0.76200
C504        C  0.96352350  0.14744811  0.31051261     0.99700
C505        C  0.86952511  0.11515341  0.19906782     0.94600
O506        O  0.84290756  0.08337963  0.21347100    -0.81500
O507        O  0.74941488  0.10849448  0.97779309    -0.81000
C508        C  0.91816542  0.08533675  0.89794866     0.98400
O509        O  0.87706861  0.09247429  0.88340459    -0.70100
O510        O  0.78517484  0.08806343  0.89495817    -0.73700
Al511      Al  0.83094914  0.13056021  0.91590283     1.49000
C512        C  0.77790615  0.04651228  0.90546145     0.93600
O513        O  0.83679670  0.02290958  0.02185827    -0.79900
O514        O  0.87742590  0.11484078  0.05442219    -0.73500
Al515      Al  0.79868943  0.06938925  0.99649896     1.90100
O516        O  0.90666002  0.04340426  0.00058371    -0.72500
O517        O  0.90399787  0.17471556  0.98905959    -0.72400
O518        O  0.93088647  0.10117988  0.93652181    -0.78000
O519        O  0.87424578  0.17975229  0.92030761    -0.76200
O520        O  0.84351792  0.10269968  0.96894693    -1.12400
O521        O  0.78458240  0.16903456  0.94851943    -0.71600
C522        C  0.75143469  0.15156735  0.97245578     0.99200
C523        C  0.87918705  0.01432541  0.01792090     0.95600
Al524      Al  0.89965049  0.10810493  0.99333646     1.55600
O525        O  0.79082115  0.03072955  0.94399294    -0.76200
C526        C  0.90048600  0.19567770  0.95085044     0.99700
C527        C  0.83801746  0.11401874  0.07373937     0.94600
O528        O  0.80181488  0.10369282  0.05190815    -0.81500
C529        C  0.83489613  0.12017221  0.12371363    -0.15600
C530        C  0.87322125  0.12285341  0.14950486    -0.30800
H531        H  0.80109363  0.11592457  0.14025729     0.13400
H532        H  0.90723191  0.12871697  0.13413265     0.14000
C533        C  0.77970104  0.18824353  0.41429798    -0.15600
C534        C  0.82610154  0.18478371  0.41934724    -0.30800
H535        H  0.76260730  0.16350746  0.39189089     0.13400
H536        H  0.84460507  0.21029661  0.43958811     0.14000
C537        C  0.01039035  0.15772717  0.29034544    -0.15600
C538        C  0.03999199  0.19419814  0.29335167    -0.30800
H539        H  0.02247310  0.13024156  0.26759418     0.13400
H540        H  0.07080519  0.19160384  0.27149581     0.14000
C541        C  0.88675482  0.33694206  0.36088296    -0.15600
C542        C  0.86613010  0.34342844  0.40191633    -0.30800
H543        H  0.86806622  0.33430471  0.32845271     0.13400
H544        H  0.88628007  0.34506919  0.43363520     0.14000
C545        C  0.76262749  0.42457705  0.57379220    -0.15600
C546        C  0.75238738  0.43963789  0.53055594    -0.30800
H547        H  0.74253507  0.39593502  0.58768510     0.13400
H548        H  0.77083056  0.46883876  0.51580849     0.14000
C549        C  0.93777208  0.34800921  0.54727301    -0.15600
C550        C  0.97226627  0.36405550  0.51916233    -0.30800
H551        H  0.92075154  0.31546495  0.53993394     0.13400
H552        H  0.98776990  0.39734766  0.52661213     0.14000
C553        C  0.92317040  0.62724711  0.62776985    -0.15600
C554        C  0.88463833  0.60285765  0.63587121    -0.30800
H555        H  0.95698519  0.61052879  0.62677186     0.13400
H556        H  0.85029981  0.61831371  0.63667832     0.14000
C557        C  0.03359136  0.86271178  0.75923279    -0.15600
C558        C  0.00552573  0.87703518  0.72534067    -0.30800
H559        H  0.03620253  0.82618548  0.76747297     0.13400
H560        H  0.00539828  0.91309814  0.71492559     0.14000
C561        C  0.99021580  0.04124402  0.89641421    -0.15600
C562        C  0.95334115  0.05731324  0.87226953    -0.30800
H563        H  0.99230105  0.04836951  0.93331294     0.13400
H564        H  0.94977262  0.05046271  0.83550228     0.14000
C565        C  0.97148351  0.24633062  0.95553705    -0.15600
C566        C  0.93009101  0.23568867  0.93693109    -0.30800
H567        H  0.98123456  0.23151140  0.98861199     0.13400
H568        H  0.92272376  0.24995666  0.90288105     0.14000
C569        C  0.96858033  0.35409319  0.76100276    -0.15600
C570        C  0.99899106  0.36918804  0.79266325    -0.30800
H571        H  0.96413446  0.31730403  0.75551131     0.13400
H572        H  0.00321600  0.40605877  0.79789279     0.14000
C573        C  0.13915856  0.13226551  0.88988398    -0.15600
C574        C  0.14968359  0.11116632  0.85001486    -0.30800
H575        H  0.13451565  0.11361416  0.92228742     0.13400
H576        H  0.15112812  0.13054766  0.81770557     0.14000
C577        C  0.19165306  0.39298252  0.82097444    -0.15600
C578        C  0.20117628  0.38195374  0.77628808    -0.30800
H579        H  0.21152860  0.41940814  0.83853782     0.13400
H580        H  0.18154918  0.35404487  0.76069469     0.14000
C581        C  0.16205804  0.28099832  0.01576247    -0.15600
C582        C  0.19912733  0.28359426  0.04450791    -0.30800
H583        H  0.13301567  0.26152597  0.02991759     0.13400
H584        H  0.19525108  0.26479504  0.07693111     0.14000
C585        C  0.35133240  0.33577699  0.88512000    -0.15600
C586        C  0.35833289  0.37721482  0.86586494    -0.30800
H587        H  0.34915566  0.30396711  0.86539336     0.13400
H588        H  0.35916371  0.40837547  0.88674132     0.14000
C589        C  0.82815145  0.49548058  0.82672230    -0.15600
C590        C  0.80849915  0.48104041  0.78682971    -0.30800
H591        H  0.86288573  0.48269510  0.83374722     0.13400
H592        H  0.77428134  0.49327170  0.77740714     0.14000
C593        C  0.88918229  0.68148569  0.80485979    -0.15600
C594        C  0.86328804  0.70628759  0.77439676    -0.30800
H595        H  0.92680709  0.68165656  0.80304102     0.13400
H596        H  0.82577246  0.70668993  0.77863578     0.14000
C597        C  0.43381279  0.55541023  0.76519539    -0.15600
C598        C  0.44994718  0.51296398  0.75376994    -0.30800
H599        H  0.40361850  0.56834805  0.74693425     0.13400
H600        H  0.48067500  0.49931875  0.77041365     0.14000
C601        C  0.36233984  0.52728228  0.93865778    -0.15600
C602        C  0.38342017  0.48951517  0.95697927    -0.30800
H603        H  0.32488659  0.52938231  0.93585604     0.13400
H604        H  0.42105823  0.48753058  0.95581058     0.14000
C605        C  0.61726241  0.61708698  0.88388975    -0.15600
C606        C  0.64208576  0.60881231  0.92189810    -0.30800
H607        H  0.63283191  0.61997857  0.84956436     0.13400
H608        H  0.62524134  0.60620625  0.95573323     0.14000
C609        C  0.37153712  0.87395903  0.37588328    -0.15600
C610        C  0.41119485  0.85048552  0.38098820    -0.30800
H611        H  0.33791591  0.85720059  0.37450895     0.13400
H612        H  0.44410986  0.86862282  0.38342533     0.14000
C613        C  0.94512537  0.96659082  0.26259472    -0.15600
C614        C  0.92693166  0.92528783  0.25117772    -0.30800
H615        H  0.97879855  0.97664483  0.24882507     0.13400
H616        H  0.89369212  0.91537492  0.26618331     0.14000
C617        C  0.87581368  0.74550485  0.03671407    -0.15600
C618        C  0.89042961  0.71336366  0.00665525    -0.30800
H619        H  0.83891807  0.75259687  0.04055835     0.13400
H620        H  0.92699440  0.70419827  0.00488557     0.14000
C621        C  0.87716171  0.94455437  0.06845818    -0.15600
C622        C  0.89818724  0.97100994  0.03571187    -0.30800
H623        H  0.84145449  0.95073656  0.07897244     0.13400
H624        H  0.93393067  0.96409023  0.02559055     0.14000
C625        C  0.07352053  0.86691964  0.95901088    -0.15600
C626        C  0.04345156  0.88738192  0.98877063    -0.30800
H627        H  0.08274161  0.83079480  0.96276372     0.13400
H628        H  0.03578098  0.92392848  0.98532815     0.14000
C629        C  0.25781003  0.92664917  0.92647110    -0.15600
C630        C  0.27113679  0.94556987  0.96710989    -0.30800
H631        H  0.27289114  0.89365964  0.91648325     0.13400
H632        H  0.25735818  0.97891511  0.97751252     0.14000
C633        C  0.30877167  0.00182198  0.22632534    -0.15600
C634        C  0.33069544  0.98798349  0.18692896    -0.30800
H635        H  0.27359708  0.99045502  0.23352128     0.13400
H636        H  0.36542144  0.00092400  0.17998126     0.14000
C637        C  0.38416454  0.77794708  0.99704298    -0.15600
C638        C  0.36877426  0.74335288  0.97040464    -0.30800
H639        H  0.42113943  0.78461625  0.99948218     0.13400
H640        H  0.33183871  0.73642275  0.96817183     0.14000
C641        C  0.36281074  0.76777616  0.22622089    -0.15600
C642        C  0.38415583  0.80147571  0.20129482    -0.30800
H643        H  0.32769683  0.75742881  0.21764831     0.13400
H644        H  0.41951994  0.81178689  0.20854996     0.14000
C645        C  0.12208537  0.85334253  0.14547849    -0.15600
C646        C  0.13937260  0.88430558  0.11562681    -0.30800
H647        H  0.14411952  0.82916497  0.16386668     0.13400
H648        H  0.11734290  0.90484118  0.09327547     0.14000
C649        C  0.50555422  0.80829035  0.83096951    -0.15600
C650        C  0.49276171  0.76753276  0.81199509    -0.30800
H651        H  0.49077200  0.81778818  0.86440496     0.13400
H652        H  0.50695771  0.75749663  0.77852343     0.14000
C653        C  0.75205466  0.01802716  0.87270216    -0.15600
C654        C  0.72372228  0.98426158  0.88694564    -0.30800
H655        H  0.75214489  0.02871253  0.83657065     0.13400
H656        H  0.72122403  0.97570794  0.92358286     0.14000
C657        C  0.69039733  0.78616362  0.88409319    -0.15600
C658        C  0.72410985  0.76047142  0.86348467    -0.30800
H659        H  0.67903466  0.77914928  0.91934357     0.13400
H660        H  0.73487186  0.76835501  0.82818049     0.14000
C661        C  0.76787204  0.85017720  0.70696204    -0.15600
C662        C  0.80361633  0.87502611  0.68908172    -0.30800
H663        H  0.76673623  0.81318761  0.70090006     0.13400
H664        H  0.80634887  0.91191785  0.69483024     0.14000
C665        C  0.79056946  0.78834254  0.49103893    -0.15600
C666        C  0.83121518  0.80718298  0.50452448    -0.30800
H667        H  0.78009243  0.75527429  0.50528964     0.13400
H668        H  0.83935726  0.84101927  0.49028259     0.14000
C669        C  0.53916419  0.72660643  0.44028045    -0.15600
C670        C  0.57955033  0.74404886  0.42326865    -0.30800
H671        H  0.52629274  0.73746647  0.47402390     0.13400
H672        H  0.59246225  0.73079774  0.39034675     0.14000
C673        C  0.76191590  0.96318138  0.38565495    -0.15600
C674        C  0.79489435  0.99225265  0.40058116    -0.30800
H675        H  0.75440527  0.96164909  0.34885238     0.13400
H676        H  0.80308718  0.99385590  0.43720995     0.14000
C677        C  0.55173054  0.93526568  0.38303568    -0.15600
C678        C  0.52158626  0.96194303  0.40802581    -0.30800
H679        H  0.54775844  0.93094487  0.34591697     0.13400
H680        H  0.52551700  0.96481062  0.44532454     0.14000
C681        C  0.63464604  0.84692432  0.62307129    -0.15600
C682        C  0.61051959  0.88253064  0.64051074    -0.30800
H683        H  0.65005184  0.82062556  0.64497966     0.13400
H684        H  0.59946275  0.91099843  0.61879205     0.14000
C685        C  0.45839078  0.21238286  0.06222818    -0.15600
C686        C  0.41792174  0.22850642  0.08044529    -0.30800
H687        H  0.46808890  0.22141194  0.02696457     0.13400
H688        H  0.40853883  0.21773567  0.11536667     0.14000
C689        C  0.67801228  0.15869972  0.01631645    -0.15600
C690        C  0.71687078  0.17942763  0.99932580    -0.30800
H691        H  0.66732770  0.12598884  0.00144802     0.13400
H692        H  0.72705808  0.21317617  0.01192336     0.14000
C693        C  0.46213459  0.12882519  0.26697604    -0.15600
C694        C  0.49586851  0.11471941  0.23782463    -0.30800
H695        H  0.45395294  0.16531565  0.27005104     0.13400
H696        H  0.50334950  0.07807093  0.23469021     0.14000
C697        C  0.72519281  0.14600345  0.24494657    -0.15600
C698        C  0.69904854  0.12156753  0.21455776    -0.30800
H699        H  0.71886497  0.18275856  0.24904371     0.13400
H700        H  0.70570451  0.08512064  0.20889312     0.14000
C701        C  0.61283194  0.29738106  0.30927339    -0.15600
C702        C  0.63440431  0.29512276  0.26777703    -0.30800
H703        H  0.57704950  0.28681952  0.31433561     0.13400
H704        H  0.66976412  0.30795911  0.26458442     0.14000
C705        C  0.68886171  0.48302072  0.29075517    -0.15600
C706        C  0.70740738  0.44046709  0.29469428    -0.30800
H707        H  0.68072490  0.50340953  0.32132019     0.13400
H708        H  0.71564836  0.42261948  0.26243772     0.14000
C709        C  0.76806788  0.54634708  0.03790378    -0.15600
C710        C  0.75121446  0.56325903  0.07882656    -0.30800
H711        H  0.75508467  0.51377581  0.02474860     0.13400
H712        H  0.76619973  0.59469257  0.09265718     0.14000
C713        C  0.51464122  0.61988181  0.26092165    -0.15600
C714        C  0.52809615  0.57590057  0.26585638    -0.30800
H715        H  0.52575698  0.63920079  0.23049079     0.13400
H716        H  0.51586269  0.55577056  0.29529224     0.14000
C717        C  0.55942209  0.62086070  0.06134451    -0.15600
C718        C  0.52083260  0.60423389  0.04102741    -0.30800
H719        H  0.57481053  0.65322829  0.05023456     0.13400
H720        H  0.50709027  0.57111214  0.05226905     0.14000
C721        C  0.63925090  0.36647102  0.09914315    -0.15600
C722        C  0.59766001  0.34722440  0.09204200    -0.30800
H723        H  0.67061612  0.34590443  0.10241888     0.13400
H724        H  0.56664244  0.36862486  0.09172917     0.14000
C725        C  0.45511972  0.41227101  0.12331700    -0.15600
C726        C  0.48504523  0.44051931  0.10068972    -0.30800
H727        H  0.45965605  0.40459073  0.15983763     0.13400
H728        H  0.48051450  0.44660650  0.06383132     0.14000
C729        C  0.51049314  0.28355341  0.70114979    -0.15600
C730        C  0.46750067  0.28528498  0.72012022    -0.30800
H731        H  0.52715960  0.31489599  0.68900281     0.13400
H732        H  0.45305129  0.25252993  0.73174311     0.14000
C733        C  0.55523015  0.02725785  0.77315425    -0.15600
C734        C  0.57422424  0.06736492  0.75802791    -0.30800
H735        H  0.52080472  0.01762058  0.76182289     0.13400
H736        H  0.60808858  0.07697377  0.77106844     0.14000
C737        C  0.62090860  0.24975045  0.54542473    -0.15600
C738        C  0.60841117  0.28764641  0.52150911    -0.30800
H739        H  0.65672471  0.23808355  0.54409255     0.13400
H740        H  0.57266324  0.29939121  0.52133710     0.14000
C741        C  0.63420489  0.03705076  0.57739941    -0.15600
C742        C  0.61318990  0.00483097  0.55037715    -0.30800
H743        H  0.67081979  0.03458563  0.58542653     0.13400
H744        H  0.57607934  0.00702800  0.54467700     0.14000
C745        C  0.46584091  0.10986616  0.48810092    -0.15600
C746        C  0.42680366  0.12676456  0.46830674    -0.30800
H747        H  0.48012526  0.07721380  0.47607278     0.13400
H748        H  0.41115091  0.15883563  0.48003667     0.14000
C749        C  0.20771870  0.03305517  0.45919447    -0.15600
C750        C  0.23768817  0.02342067  0.42377158    -0.30800
H751        H  0.17460024  0.01532453  0.45746767     0.13400
H752        H  0.22418603  0.00020116  0.39761578     0.14000
C753        C  0.17754445  0.99422187  0.67396882    -0.15600
C754        C  0.19843854  0.97817402  0.71244981    -0.30800
H755        H  0.14277733  0.98197287  0.66639014     0.13400
H756        H  0.23369341  0.98845027  0.72032126     0.14000
C757        C  0.12406601  0.20664116  0.49402509    -0.15600
C758        C  0.13859684  0.23353709  0.45920889    -0.30800
H759        H  0.08734039  0.20514863  0.50284593     0.13400
H760        H  0.17542730  0.23664144  0.45140631     0.14000
C761        C  0.13340005  0.18369569  0.70728576    -0.15600
C762        C  0.15656211  0.21210613  0.73655621    -0.30800
H763        H  0.09653618  0.17779434  0.71213556     0.13400
H764        H  0.19377061  0.21601775  0.73207195     0.14000
C765        C  0.38337229  0.11062030  0.64034269    -0.15600
C766        C  0.36912725  0.09317490  0.59994832    -0.30800
H767        H  0.35958407  0.11861121  0.66867513     0.13400
H768        H  0.39294243  0.08923739  0.57083408     0.14000
C769        C  0.31615165  0.28741083  0.60937361    -0.15600
C770        C  0.28496979  0.25629586  0.62547884    -0.30800
H771        H  0.33480489  0.28144871  0.57705017     0.13400
H772        H  0.26927989  0.26117722  0.65951541     0.14000
C773        C  0.05571175  0.45394027  0.23523958    -0.15600
C774        C  0.07395780  0.41310610  0.24872784    -0.30800
H775        H  0.02218785  0.46494430  0.24868477     0.13400
H776        H  0.10703663  0.40275876  0.23354533     0.14000
C777        C  0.00656298  0.66703678  0.18353959    -0.15600
C778        C  0.99345055  0.70725496  0.20350519    -0.30800
H779        H  0.99059878  0.65765665  0.15088857     0.13400
H780        H  0.00810053  0.71727897  0.23651014     0.14000
C781        C  0.21805095  0.48354555  0.11331747    -0.15600
C782        C  0.24991410  0.45356224  0.12849954    -0.30800
H783        H  0.20977375  0.48544946  0.07667434     0.13400
H784        H  0.25829293  0.45199717  0.16514767     0.14000
C785        C  0.19029145  0.69448915  0.11921779    -0.15600
C786        C  0.21774177  0.72549197  0.14112727    -0.30800
H787        H  0.18247235  0.69815390  0.08269029     0.13400
H788        H  0.22384244  0.72190674  0.17803492     0.14000
C789        C  0.27722963  0.62394593  0.28602118    -0.15600
C790        C  0.31201901  0.59872259  0.30490168    -0.30800
H791        H  0.27763938  0.66120180  0.29032252     0.13400
H792        H  0.31372984  0.56151464  0.30109531     0.14000
C793        C  0.29185144  0.68380131  0.50538438    -0.15600
C794        C  0.33031431  0.66175709  0.48947270    -0.30800
H795        H  0.28489930  0.71918452  0.49518816     0.13400
H796        H  0.33524720  0.62618561  0.50053535     0.14000
C797        C  0.03742456  0.75152281  0.56014722    -0.15600
C798        C  0.07807170  0.73629879  0.57784834    -0.30800
H799        H  0.02456878  0.73716925  0.52798044     0.13400
H800        H  0.09134178  0.75276537  0.60885279     0.14000
C801        C  0.26200154  0.52244022  0.62226865    -0.15600
C802        C  0.29909043  0.49691124  0.60983784    -0.30800
H803        H  0.25137682  0.52376001  0.65845807     0.13400
H804        H  0.31037049  0.49516226  0.57390503     0.14000
C805        C  0.06103594  0.54724968  0.63919448    -0.15600
C806        C  0.04032267  0.50906446  0.62192376    -0.30800
H807        H  0.04986215  0.56204203  0.67200436     0.13400
H808        H  0.05166643  0.49576608  0.58845767     0.14000
C809        C  0.11630988  0.58573773  0.36502545    -0.15600
C810        C  0.12690578  0.62538117  0.38586632    -0.30800
H811        H  0.11512632  0.55354206  0.38446690     0.13400
H812        H  0.13100192  0.65771780  0.36717101     0.14000
C813        C  0.10852837  0.46941562  0.46392702    -0.15600
C814        C  0.12944176  0.44137626  0.43242360    -0.30800
H815        H  0.07210330  0.46429460  0.47226060     0.13400
H816        H  0.16528550  0.44697963  0.42216665     0.14000
loop_ 
_geom_bond_atom_site_label_1 
_geom_bond_atom_site_label_2 
_geom_bond_distance 
_geom_bond_site_symmetry_2 
_ccdc_geom_bond_type 
O1           C16   1.254       .  A
O1           Al9   1.855       .  S
C2           O12   1.256       .  A
C2            O3   1.282       .  A
C2          C805   1.483       .  S
O3           Al5   1.991       .  S
O4            C6   1.251       .  A
O4           Al5   1.866       .  S
Al5          O13   1.910       .  S
Al5          O15   1.981       .  S
Al5          O14   1.777       .  S
C6           O19   1.258       .  A
C6          C801   1.468       .  S
O7           C17   1.259       .  A
O7           Al9   1.912       .  S
O8           C21   1.254       .  A
O8          Al18   1.861       .  S
Al9          O22   1.905       .  S
Al9          O19   1.917       .  S
Al9          O14   1.796       .  S
O10          C17   1.261       .  A
O10         Al18   1.922       .  S
O11          C20   1.254       .  A
O11         Al18   1.920       .  S
O12         Al18   1.827       .  S
O13          C20   1.255       .  A
O14         Al18   1.785       .  S
O15          C16   1.277       .  A
C16         C793   1.491       .  S
C17         C813   1.474       .  S
C20         C798   1.488       .  S
C21          O22   1.270       .  A
C21         C810   1.432       .  S
O23          C38   1.253       .  A
O23         Al31   1.847       .  S
C24          O34   1.258       .  A
C24          O25   1.283       .  A
C24         C785   1.493       .  S
O25         Al27   1.993       .  S
O26          C28   1.251       .  A
O26         Al27   1.885       .  S
Al27         O35   1.898       .  S
Al27         O37   1.972       .  S
Al27         O36   1.788       .  S
C28          O41   1.252       .  A
C28         C781   1.467       .  S
O29          C39   1.255       .  A
O29         Al31   1.909       .  S
O30          C43   1.256       .  A
O30         Al40   1.851       .  S
Al31         O44   1.892       .  S
Al31         O41   1.868       .  S
Al31         O36   1.804       .  S
O32          C39   1.261       .  A
O32         Al40   1.916       .  S
O33          C42   1.252       .  A
O33         Al40   1.919       .  S
O34         Al40   1.831       .  S
O35          C42   1.250       .  A
O36         Al40   1.785       .  S
O37          C38   1.276       .  A
C38         C773   1.486       .  S
C39         C789   1.474       .  S
C42         C777   1.488       .  S
C43          O44   1.262       .  A
C43         C809   1.426       .  S
O45          C60   1.258       .  A
O45         Al53   1.900       .  S
C46          O56   1.256       .  A
C46          O47   1.279       .  A
C46         C761   1.500       .  S
O47         Al49   1.988       .  S
O48          C50   1.251       .  A
O48         Al49   1.872       .  S
Al49         O57   1.899       .  S
Al49         O59   1.958       .  S
Al49         O58   1.764       .  S
C50          O63   1.262       .  A
C50         C757   1.466       .  S
O51          C61   1.262       .  A
O51         Al53   1.911       .  S
O52          C65   1.253       .  A
O52         Al62   1.858       .  S
Al53         O66   1.902       .  S
Al53         O63   1.915       .  S
Al53         O58   1.804       .  S
O54          C61   1.265       .  A
O54         Al62   1.926       .  S
O55          C64   1.260       .  A
O55         Al62   1.929       .  S
O56         Al62   1.864       .  S
O57          C64   1.255       .  A
O58         Al62   1.777       .  S
O59          C60   1.279       .  A
C60         C749   1.487       .  S
C61         C770   1.467       .  S
C64         C753   1.483   1_545  S
C65          O66   1.262       .  A
C65         C766   1.430       .  S
O67          C82   1.253       .  A
O67         Al75   1.838       .  S
C68          O78   1.250       .  A
C68          O69   1.281       .  A
C68         C741   1.498       .  S
O69         Al71   2.009       .  S
O70          C72   1.256       .  A
O70         Al71   1.872       .  S
Al71         O79   1.921       .  S
Al71         O81   2.012       .  S
Al71         O80   1.772       .  S
C72          O85   1.263       .  A
C72         C737   1.466       .  S
O73          C83   1.259       .  A
O73         Al75   1.890       .  S
O74          C87   1.249       .  A
O74         Al84   1.862       .  S
Al75         O88   1.911       .  S
Al75         O85   1.936       .  S
Al75         O80   1.785       .  S
O76          C83   1.270       .  A
O76         Al84   1.940       .  S
O77          C86   1.263       .  A
O77         Al84   1.934       .  S
O78         Al84   1.822       .  S
O79          C86   1.264       .  A
O80         Al84   1.763       .  S
O81          C82   1.282       .  A
C82         C729   1.491       .  S
C83         C745   1.464       .  S
C86         C734   1.492       .  S
C87          O88   1.265       .  A
C87         C765   1.434       .  S
O89         C104   1.260       .  A
O89         Al97   1.870       .  S
C90         O100   1.250       .  A
C90          O91   1.273       .  A
C90         C717   1.477       .  S
O91         Al93   1.972       .  S
O92          C94   1.261       .  A
O92         Al93   1.897       .  S
Al93        O101   1.940       .  S
Al93        O103   1.990       .  S
Al93        O102   1.781       .  S
C94         O107   1.259       .  A
C94         C714   1.476       .  S
O95         C105   1.263       .  A
O95         Al97   1.911       .  S
O96         C109   1.249       .  A
O96        Al106   1.867       .  S
Al97        O110   1.893       .  S
Al97        O107   1.918       .  S
Al97        O102   1.785       .  S
O98         C105   1.266       .  A
O98        Al106   1.927       .  S
O99         C108   1.260       .  A
O99        Al106   1.919       .  S
O100       Al106   1.822       .  S
O101        C108   1.269       .  A
O102       Al106   1.778       .  S
O103        C104   1.277       .  A
C104        C705   1.496       .  S
C105        C726   1.474       .  S
C108        C710   1.498       .  S
C109        O110   1.263       .  A
C109        C721   1.439       .  S
O111        C126   1.251       .  A
O111       Al119   1.840       .  S
C112        O122   1.262       .  A
C112        O113   1.290       .  A
C112        C698   1.495       .  S
O113       Al115   2.007       .  S
O114        C116   1.252       .  A
O114       Al115   1.880       .  S
Al115       O123   1.917       .  S
Al115       O125   1.984       .  S
Al115       O124   1.767       .  S
C116        O129   1.258       .  A
C116        C694   1.475       .  S
O117        C127   1.252       .  A
O117       Al119   1.894       .  S
O118        C131   1.257       .  A
O118       Al128   1.846       .  S
Al119       O132   1.932       .  S
Al119       O129   1.909       .  S
Al119       O124   1.792       .  S
O120        C127   1.257       .  A
O120       Al128   1.916       .  S
O121        C130   1.250       .  A
O121       Al128   1.913       .  S
O122       Al128   1.845       .  S
O123        C130   1.253       .  A
O124       Al128   1.786       .  S
O125        C126   1.278       .  A
C126        C685   1.489       .  S
C127        C702   1.463       .  S
C130        C689   1.489       .  S
C131        O132   1.275       .  A
C131        C722   1.435       .  S
O133        C148   1.255       .  A
O133       Al141   1.850       .  S
C134        O144   1.252       .  A
C134        O135   1.284       .  A
C134        C677   1.494       .  S
O135       Al137   2.003       .  S
O136        C138   1.251       .  A
O136       Al137   1.880       .  S
Al137       O145   1.909       .  S
Al137       O147   1.997       .  S
Al137       O146   1.778       .  S
C138        O151   1.257       .  A
C138        C673   1.480       .  S
O139        C149   1.259       .  A
O139       Al141   1.906       .  S
O140        C153   1.250       .  A
O140       Al150   1.859       .  S
Al141       O154   1.914       .  S
Al141       O151   1.920       .  S
Al141       O146   1.807       .  S
O142        C149   1.267       .  A
O142       Al150   1.931       .  S
O143        C152   1.254       .  A
O143       Al150   1.928       .  S
O144       Al150   1.815       .  S
O145        C152   1.254       .  A
O146       Al150   1.783       .  S
O147        C148   1.283       .  A
C148        C665   1.494       .  S
C149        C742   1.473   1_565  S
C152        C670   1.495       .  S
C153        O154   1.266       .  A
C153        C681   1.433       .  S
O155        C170   1.251       .  A
O155       Al163   1.847       .  S
C156        O166   1.260       .  A
C156        O157   1.283       .  A
C156        C657   1.485       .  S
O157       Al159   1.988       .  S
O158        C160   1.253       .  A
O158       Al159   1.886       .  S
Al159       O167   1.918       .  S
Al159       O169   1.976       .  S
Al159       O168   1.783       .  S
C160        O173   1.256       .  A
C160        C654   1.470       .  S
O161        C171   1.253       .  A
O161       Al163   1.907       .  S
O162        C175   1.259       .  A
O162       Al172   1.855       .  S
Al163       O176   1.909       .  S
Al163       O173   1.886       .  S
Al163       O168   1.800       .  S
O164        C171   1.257       .  A
O164       Al172   1.909       .  S
O165        C174   1.252       .  A
O165       Al172   1.917       .  S
O166       Al172   1.833       .  S
O167        C174   1.255       .  A
O168       Al172   1.782       .  S
O169        C170   1.275       .  A
C170        C733   1.488   1_565  S
C171        C661   1.469       .  S
C174        C649   1.492       .  S
C175        O176   1.269       .  A
C175        C682   1.428       .  S
O177        C192   1.254       .  A
O177       Al185   1.846       .  S
C178        O188   1.256       .  A
C178        O179   1.282       .  A
C178        C642   1.480       .  S
O179       Al181   1.983       .  S
O180        C182   1.251       .  A
O180       Al181   1.882       .  S
Al181       O189   1.918       .  S
Al181       O191   1.973       .  S
Al181       O190   1.787       .  S
C182        O195   1.254       .  A
C182        C637   1.470   1_554  S
O183        C193   1.254       .  A
O183       Al185   1.904       .  S
O184        C197   1.254       .  A
O184       Al194   1.852       .  S
Al185       O198   1.909       .  S
Al185       O195   1.886       .  S
Al185       O190   1.803       .  S
O186        C193   1.260       .  A
O186       Al194   1.917       .  S
O187        C196   1.251       .  A
O187       Al194   1.908       .  S
O188       Al194   1.821       .  S
O189        C196   1.255       .  A
O190       Al194   1.784       .  S
O191        C192   1.277       .  A
C192        C630   1.482   1_554  S
C193        C786   1.469       .  S
C196        C634   1.491       .  S
C197        O198   1.267       .  A
C197        C646   1.427       .  S
O199        C214   1.253   1_455  A
O199       Al207   1.844       .  S
C200        O210   1.258       .  A
C200        O201   1.283       .  A
C200        C621   1.479       .  S
O201       Al203   1.983       .  S
O202        C204   1.250       .  A
O202       Al203   1.880       .  S
Al203       O211   1.911       .  S
Al203       O213   1.974       .  S
Al203       O212   1.782       .  S
C204        O217   1.255       .  A
C204        C617   1.472       .  S
O205        C215   1.254       .  A
O205       Al207   1.901       .  S
O206        C219   1.258       .  A
O206       Al216   1.859   1_455  S
Al207       O220   1.910       .  S
Al207       O217   1.890   1_455  S
Al207       O212   1.797   1_455  S
O208        C215   1.257       .  A
O208       Al216   1.908   1_455  S
O209        C218   1.250       .  A
O209       Al216   1.903       .  S
O210       Al216   1.822       .  S
O211        C218   1.253       .  A
O212       Al216   1.781       .  S
O213        C214   1.277       .  A
C214        C778   1.483       .  S
C215        C626   1.461   1_554  S
C218        C614   1.487       .  S
C219        O220   1.269       .  A
C219        C645   1.428       .  S
O221        C236   1.253   1_565  A
O221       Al229   1.853       .  S
C222        O232   1.254       .  A
C222        O223   1.281       .  A
C222        C746   1.484       .  S
O223       Al225   1.989       .  S
O224        C226   1.255       .  A
O224       Al225   1.897       .  S
Al225       O233   1.910       .  S
Al225       O235   1.979       .  S
Al225       O234   1.783       .  S
C226        O239   1.258       .  A
C226        C693   1.480       .  S
O227        C237   1.254   1_545  A
O227       Al229   1.893   1_545  S
O228        C241   1.257       .  A
O228       Al238   1.872   1_565  S
Al229       O242   1.906       .  S
Al229       O239   1.896   1_565  S
Al229       O234   1.796   1_565  S
O230        C237   1.265       .  A
O230       Al238   1.935   1_565  S
O231        C240   1.257       .  A
O231       Al238   1.951       .  S
O232       Al238   1.817       .  S
O233        C240   1.255       .  A
O234       Al238   1.791       .  S
O235        C236   1.277       .  A
C236        C633   1.488       .  S
C237        C678   1.471       .  S
C240        C750   1.492       .  S
C241        O242   1.268       .  A
C241        C609   1.439       .  S
O243        C258   1.259       .  A
O243       Al251   1.906       .  S
C244        O254   1.259       .  A
C244        O245   1.275       .  A
C244        C790   1.491       .  S
O245       Al247   1.963       .  S
O246        C248   1.270       .  A
O246       Al247   1.949       .  S
Al247       O255   1.932       .  S
Al247       O257   1.970       .  S
Al247       O256   1.768       .  S
C248        O261   1.256       .  A
C248        C713   1.472       .  S
O249        C259   1.255       .  A
O249       Al251   1.899       .  S
O250        C263   1.260       .  A
O250       Al260   1.872       .  S
Al251       O264   1.881       .  S
Al251       O261   1.877       .  S
Al251       O256   1.787       .  S
O252        C259   1.262       .  A
O252       Al260   1.908       .  S
O253        C262   1.264       .  A
O253       Al260   1.930       .  S
O254       Al260   1.876       .  S
O255        C262   1.266       .  A
O256       Al260   1.774       .  S
O257        C258   1.276       .  A
C258        C669   1.498       .  S
C259        C641   1.467       .  S
C262        C794   1.494       .  S
C263        O264   1.259       .  A
C263        C610   1.446       .  S
O265        C280   1.254       .  A
O265       Al273   1.850       .  S
C266        O276   1.254       .  A
C266        O267   1.281       .  A
C266        C601   1.498       .  S
O267       Al269   2.003       .  S
O268        C270   1.255       .  A
O268       Al269   1.889       .  S
Al269       O277   1.908       .  S
Al269       O279   1.992       .  S
Al269       O278   1.775       .  S
C270        O283   1.259       .  A
C270        C638   1.471       .  S
O271        C281   1.256       .  A
O271       Al273   1.888       .  S
O272        C285   1.253       .  A
O272       Al282   1.863       .  S
Al273       O286   1.912       .  S
Al273       O283   1.900       .  S
Al273       O278   1.791       .  S
O274        C281   1.267       .  A
O274       Al282   1.934       .  S
O275        C284   1.260       .  A
O275       Al282   1.936       .  S
O276       Al282   1.832       .  S
O277        C284   1.258       .  A
O278       Al282   1.773       .  S
O279        C280   1.280       .  A
C280        C650   1.486       .  S
C281        C718   1.460   1_556  S
C284        C597   1.490       .  S
C285        O286   1.266       .  A
C285        C605   1.433       .  S
O287        C302   1.259       .  A
O287       Al295   1.909   1_554  S
C288        O298   1.260       .  A
C288        O289   1.279       .  A
C288        C593   1.489       .  S
O289       Al291   1.965       .  S
O290        C292   1.259       .  A
O290       Al291   1.909       .  S
Al291       O299   1.904       .  S
Al291       O301   1.977       .  S
Al291       O300   1.767       .  S
C292        O305   1.262       .  A
C292        C618   1.467   1_556  S
O293        C303   1.254       .  A
O293       Al295   1.905       .  S
O294        C307   1.259       .  A
O294       Al304   1.858       .  S
Al295       O308   1.880       .  S
Al295       O305   1.900       .  S
Al295       O300   1.801       .  S
O296        C303   1.258       .  A
O296       Al304   1.894       .  S
O297        C306   1.262       .  A
O297       Al304   1.944       .  S
O298       Al304   1.873       .  S
O299        C306   1.256       .  A
O300       Al304   1.782       .  S
O301        C302   1.280   1_556  A
C302        C709   1.499       .  S
C303        C658   1.469       .  S
C306        C589   1.497       .  S
C307        O308   1.259       .  A
C307        C606   1.444       .  S
O309        C324   1.255       .  A
O309       Al317   1.893       .  S
C310        O320   1.257       .  A
C310        O311   1.276       .  A
C310        C725   1.491       .  S
O311       Al313   1.977       .  S
O312        C314   1.252       .  A
O312       Al313   1.876       .  S
Al313       O321   1.917       .  S
Al313       O323   1.952       .  S
Al313       O322   1.769       .  S
C314        O327   1.259       .  A
C314        C782   1.463       .  S
O315        C325   1.262       .  A
O315       Al317   1.924   1_556  S
O316        C329   1.255       .  A
O316       Al326   1.874   1_556  S
Al317       O330   1.874   1_554  S
Al317       O327   1.899       .  S
Al317       O322   1.806       .  S
O318        C325   1.264       .  A
O318       Al326   1.917   1_556  S
O319        C328   1.258       .  A
O319       Al326   1.930       .  S
O320       Al326   1.853       .  S
O321        C328   1.259       .  A
O322       Al326   1.779       .  S
O323        C324   1.277       .  A
C324        C582   1.484       .  S
C325        C602   1.476       .  S
C328        C686   1.493       .  S
C329        O330   1.264       .  A
C329        C585   1.431       .  S
O331        C346   1.246       .  A
O331       Al339   1.839       .  S
C332        O342   1.261       .  A
C332        O333   1.283       .  A
C332        C769   1.491       .  S
O333       Al335   1.999       .  S
O334        C336   1.264       .  A
O334       Al335   1.918       .  S
Al335       O343   1.956       .  S
Al335       O345   1.969       .  S
Al335       O344   1.792       .  S
C336        O349   1.260       .  A
C336        C802   1.480       .  S
O337        C347   1.250       .  A
O337       Al339   1.903       .  S
O338        C351   1.257       .  A
O338       Al348   1.833       .  S
Al339       O352   1.903       .  S
Al339       O349   1.874       .  S
Al339       O344   1.787       .  S
O340        C347   1.252       .  A
O340       Al348   1.905       .  S
O341        C350   1.256       .  A
O341       Al348   1.902       .  S
O342       Al348   1.850       .  S
O343        C350   1.263       .  A
O344       Al348   1.770       .  S
O345        C346   1.270       .  A
C346        C598   1.486       .  S
C347        C578   1.469       .  S
C350        C730   1.492       .  S
C351        O352   1.270       .  A
C351        C586   1.423       .  S
O353        C368   1.256       .  A
O353       Al361   1.880       .  S
C354        O364   1.255       .  A
C354        O355   1.278       .  A
C354        C577   1.478       .  S
O355       Al357   1.978       .  S
O356        C358   1.257       .  A
O356       Al357   1.888       .  S
Al357       O365   1.904       .  S
Al357       O367   1.963       .  S
Al357       O366   1.782       .  S
C358        O371   1.263       .  A
C358        C570   1.480   1_455  S
O359        C369   1.260       .  A
O359       Al361   1.918       .  S
O360        C373   1.255       .  A
O360       Al370   1.865       .  S
Al361       O374   1.903       .  S
Al361       O371   1.922       .  S
Al361       O366   1.795       .  S
O362        C369   1.264       .  A
O362       Al370   1.931       .  S
O363        C372   1.259       .  A
O363       Al370   1.962       .  S
O364       Al370   1.836       .  S
O365        C372   1.256       .  A
O366       Al370   1.795       .  S
O367        C368   1.271       .  A
C368        C565   1.493   1_455  S
C369        C762   1.486       .  S
C372        C581   1.497   1_556  S
C373        O374   1.269       .  A
C373        C573   1.435       .  S
O375        C390   1.252       .  A
O375       Al383   1.841       .  S
C376        O386   1.261       .  A
C376        O377   1.280       .  A
C376        C625   1.484       .  S
O377       Al379   1.973       .  S
O378        C380   1.252       .  A
O378       Al379   1.890       .  S
Al379       O387   1.909       .  S
Al379       O389   1.961       .  S
Al379       O388   1.788       .  S
C380        O393   1.253       .  A
C380        C557   1.469       .  S
O381        C391   1.253   1_565  A
O381       Al383   1.904       .  S
O382        C395   1.259       .  A
O382       Al392   1.858   1_545  S
Al383       O396   1.900   1_565  S
Al383       O393   1.876       .  S
Al383       O388   1.800       .  S
O384        C391   1.258       .  A
O384       Al392   1.912   1_545  S
O385        C394   1.252       .  A
O385       Al392   1.912       .  S
O386       Al392   1.839       .  S
O387        C394   1.253       .  A
O388       Al392   1.784       .  S
O389        C390   1.272       .  A
C390        C754   1.480       .  S
C391        C561   1.471   1_455  S
C394        C629   1.488       .  S
C395        O396   1.265       .  A
C395        C574   1.431       .  S
O397        C412   1.260       .  A
O397       Al405   1.906   1_455  S
C398        O408   1.262       .  A
C398        O399   1.276       .  A
C398        C662   1.489       .  S
O399       Al401   1.955       .  S
O400        C402   1.261       .  A
O400       Al401   1.916       .  S
Al401       O409   1.905       .  S
Al401       O411   1.963       .  S
Al401       O410   1.772       .  S
C402        O415   1.260       .  A
C402        C558   1.464   1_655  S
O403        C413   1.254       .  A
O403       Al405   1.901       .  S
O404        C417   1.259       .  A
O404       Al414   1.856       .  S
Al405       O418   1.879       .  S
Al405       O415   1.891       .  S
Al405       O410   1.797       .  S
O406        C413   1.264       .  A
O406       Al414   1.921       .  S
O407        C416   1.263       .  A
O407       Al414   1.952       .  S
O408       Al414   1.872       .  S
O409        C416   1.256       .  A
O410       Al414   1.777       .  S
O411        C412   1.276   1_655  A
C412        C797   1.491       .  S
C413        C594   1.482       .  S
C416        C666   1.500       .  S
C417        O418   1.259       .  A
C417        C553   1.444       .  S
O419        C434   1.255       .  A
O419       Al427   1.858       .  S
C420        O430   1.255       .  A
C420        O421   1.283       .  A
C420        C549   1.497       .  S
O421       Al423   2.004       .  S
O422        C424   1.257       .  A
O422       Al423   1.903       .  S
Al423       O431   1.911       .  S
Al423       O433   1.992       .  S
Al423       O432   1.777       .  S
C424        O437   1.260       .  A
C424        C569   1.483       .  S
O425        C435   1.256       .  A
O425       Al427   1.895       .  S
O426        C439   1.252       .  A
O426       Al436   1.858       .  S
Al427       O440   1.912       .  S
Al427       O437   1.907       .  S
Al427       O432   1.794       .  S
O428        C435   1.265       .  A
O428       Al436   1.933       .  S
O429        C438   1.259       .  A
O429       Al436   1.936       .  S
O430       Al436   1.835       .  S
O431        C438   1.257       .  A
O432       Al436   1.779       .  S
O433        C434   1.279       .  A
C434        C590   1.496       .  S
C435        C806   1.466   1_655  S
C438        C545   1.492       .  S
C439        O440   1.266       .  A
C439        C554   1.431       .  S
O441        C456   1.255       .  A
O441       Al449   1.895       .  S
C442        O452   1.258       .  A
C442        O443   1.279       .  A
C442        C814   1.493       .  S
O443       Al445   1.986       .  S
O444        C446   1.252       .  A
O444       Al445   1.877       .  S
Al445       O453   1.906       .  S
Al445       O455   1.953       .  S
Al445       O454   1.770       .  S
C446        O459   1.260       .  A
C446        C758   1.468       .  S
O447        C457   1.260   1_455  A
O447       Al449   1.913       .  S
O448        C461   1.254       .  A
O448       Al458   1.869   1_655  S
Al449       O462   1.883   1_455  S
Al449       O459   1.902       .  S
Al449       O454   1.801       .  S
O450        C457   1.265       .  A
O450       Al458   1.936   1_655  S
O451        C460   1.259       .  A
O451       Al458   1.937       .  S
O452       Al458   1.851       .  S
O453        C460   1.255       .  A
O454       Al458   1.783       .  S
O455        C456   1.277       .  A
C456        C538   1.486       .  S
C457        C550   1.476       .  S
C460        C774   1.490       .  S
C461        O462   1.266       .  A
C461        C541   1.428       .  S
O463        C478   1.246       .  A
O463       Al471   1.831       .  S
C464        O474   1.265       .  A
C464        O465   1.280       .  A
C464        C701   1.467       .  S
O465       Al467   1.973       .  S
O466        C468   1.262       .  A
O466       Al467   1.923       .  S
Al467       O475   1.963       .  S
Al467       O477   1.976       .  S
Al467       O476   1.796       .  S
C468        O481   1.256       .  A
C468        C738   1.480       .  S
O469        C479   1.247       .  A
O469       Al471   1.896       .  S
O470        C483   1.261       .  A
O470       Al480   1.843       .  S
Al471       O484   1.899       .  S
Al471       O481   1.858       .  S
Al471       O476   1.788       .  S
O472        C479   1.251       .  A
O472       Al480   1.904       .  S
O473        C482   1.251       .  A
O473       Al480   1.886       .  S
O474       Al480   1.859       .  S
O475        C482   1.265       .  A
O476       Al480   1.773       .  S
O477        C478   1.272       .  A
C478        C546   1.487       .  S
C479        C533   1.465       .  S
C482        C706   1.491       .  S
C483        O484   1.268       .  A
C483        C542   1.426       .  S
O485        C500   1.256       .  A
O485       Al493   1.876       .  S
C486        O496   1.256       .  A
C486        O487   1.274       .  A
C486        C534   1.469       .  S
O487       Al489   1.959       .  S
O488        C490   1.257       .  A
O488       Al489   1.905       .  S
Al489       O497   1.910       .  S
Al489       O499   1.948       .  S
Al489       O498   1.791       .  S
C490        O503   1.260       .  A
C490        C674   1.485   1_545  S
O491        C501   1.256       .  A
O491       Al493   1.903       .  S
O492        C505   1.260       .  A
O492       Al502   1.881       .  S
Al493       O506   1.908       .  S
Al493       O503   1.902       .  S
Al493       O498   1.798       .  S
O494        C501   1.263       .  A
O494       Al502   1.928       .  S
O495        C504   1.258       .  A
O495       Al502   1.960       .  S
O496       Al502   1.840       .  S
O497        C504   1.257       .  A
O498       Al502   1.798       .  S
O499        C500   1.268       .  A
C500        C613   1.482   1_545  S
C501        C697   1.478       .  S
C504        C537   1.497   1_655  S
C505        O506   1.268       .  A
C505        C530   1.451       .  S
O507        C522   1.259       .  A
O507       Al515   1.898       .  S
C508        O518   1.262       .  A
C508        O509   1.277       .  A
C508        C562   1.490       .  S
O509       Al511   1.959       .  S
O510        C512   1.259       .  A
O510       Al511   1.910       .  S
Al511       O519   1.902       .  S
Al511       O521   1.972       .  S
Al511       O520   1.771       .  S
C512        O525   1.261       .  A
C512        C653   1.465       .  S
O513        C523   1.251       .  A
O513       Al515   1.888   1_554  S
O514        C527   1.262       .  A
O514       Al524   1.880   1_554  S
Al515       O528   1.886   1_556  S
Al515       O525   1.900       .  S
Al515       O520   1.795       .  S
O516        C523   1.258       .  A
O516       Al524   1.897   1_554  S
O517        C526   1.264       .  A
O517       Al524   1.939       .  S
O518       Al524   1.874       .  S
O519        C526   1.256       .  A
O520       Al524   1.778       .  S
O521        C522   1.280       .  A
C522        C690   1.493       .  S
C523        C622   1.464   1_545  S
C526        C566   1.494       .  S
C527        O528   1.261       .  A
C527        C529   1.455       .  S
C529        C530   1.341       .  D
C529        H531   1.089       .  S
C530        H532   1.087       .  S
C533        C534   1.351       .  D
C533        H535   1.087       .  S
C534        H536   1.086       .  S
C537        C538   1.363       .  D
C537        H539   1.087       .  S
C538        H540   1.088       .  S
C541        C542   1.334       .  D
C541        H543   1.087       .  S
C542        H544   1.090       .  S
C545        C546   1.357       .  D
C545        H547   1.088       .  S
C546        H548   1.085       .  S
C549        C550   1.361       .  D
C549        H551   1.086       .  S
C550        H552   1.087       .  S
C553        C554   1.337       .  D
C553        H555   1.088       .  S
C554        H556   1.086       .  S
C557        C558   1.340       .  D
C557        H559   1.088       .  S
C558        H560   1.087       .  S
C561        C562   1.358       .  D
C561        H563   1.087       .  S
C562        H564   1.085       .  S
C565        C566   1.350       .  D
C565        H567   1.086       .  S
C566        H568   1.089       .  S
C569        C570   1.346       .  D
C569        H571   1.086       .  S
C570        H572   1.087   1_655  S
C573        C574   1.335       .  D
C573        H575   1.087       .  S
C574        H576   1.089       .  S
C577        C578   1.354       .  D
C577        H579   1.086       .  S
C578        H580   1.088       .  S
C581        C582   1.361       .  D
C581        H583   1.087       .  S
C582        H584   1.088       .  S
C585        C586   1.338       .  D
C585        H587   1.086       .  S
C586        H588   1.086       .  S
C589        C590   1.355       .  D
C589        H591   1.088       .  S
C590        H592   1.085       .  S
C593        C594   1.363       .  D
C593        H595   1.086       .  S
C594        H596   1.088       .  S
C597        C598   1.354       .  D
C597        H599   1.088       .  S
C598        H600   1.086       .  S
C601        C602   1.360       .  D
C601        H603   1.086       .  S
C602        H604   1.087       .  S
C605        C606   1.337       .  D
C605        H607   1.087       .  S
C606        H608   1.089       .  S
C609        C610   1.339       .  D
C609        H611   1.086       .  S
C610        H612   1.089       .  S
C613        C614   1.350       .  D
C613        H615   1.086       .  S
C614        H616   1.088       .  S
C617        C618   1.338       .  D
C617        H619   1.088       .  S
C618        H620   1.088       .  S
C621        C622   1.356       .  D
C621        H623   1.086       .  S
C622        H624   1.087       .  S
C625        C626   1.351       .  D
C625        H627   1.085       .  S
C626        H628   1.086       .  S
C629        C630   1.354       .  D
C629        H631   1.087       .  S
C630        H632   1.086       .  S
C633        C634   1.356   1_545  D
C633        H635   1.086   1_545  S
C634        H636   1.087   1_565  S
C637        C638   1.342       .  D
C637        H639   1.087       .  S
C638        H640   1.087       .  S
C641        C642   1.358       .  D
C641        H643   1.087       .  S
C642        H644   1.086       .  S
C645        C646   1.338       .  D
C645        H647   1.087       .  S
C646        H648   1.086       .  S
C649        C650   1.355       .  D
C649        H651   1.087       .  S
C650        H652   1.085       .  S
C653        C654   1.338   1_545  D
C653        H655   1.088       .  S
C654        H656   1.088       .  S
C657        C658   1.357       .  D
C657        H659   1.085       .  S
C658        H660   1.087       .  S
C661        C662   1.357       .  D
C661        H663   1.087       .  S
C662        H664   1.085       .  S
C665        C666   1.355       .  D
C665        H667   1.085       .  S
C666        H668   1.088       .  S
C669        C670   1.358       .  D
C669        H671   1.085       .  S
C670        H672   1.087       .  S
C673        C674   1.346       .  D
C673        H675   1.087       .  S
C674        H676   1.086       .  S
C677        C678   1.364       .  D
C677        H679   1.086       .  S
C678        H680   1.087       .  S
C681        C682   1.339       .  D
C681        H683   1.087       .  S
C682        H684   1.085       .  S
C685        C686   1.358       .  D
C685        H687   1.085       .  S
C686        H688   1.087       .  S
C689        C690   1.360   1_554  D
C689        H691   1.087       .  S
C690        H692   1.086   1_556  S
C693        C694   1.344       .  D
C693        H695   1.087       .  S
C694        H696   1.087       .  S
C697        C698   1.362       .  D
C697        H699   1.087       .  S
C698        H700   1.085       .  S
C701        C702   1.346       .  D
C701        H703   1.086       .  S
C702        H704   1.089       .  S
C705        C706   1.348       .  D
C705        H707   1.085       .  S
C706        H708   1.089       .  S
C709        C710   1.364       .  D
C709        H711   1.086       .  S
C710        H712   1.087       .  S
C713        C714   1.340       .  D
C713        H715   1.088       .  S
C714        H716   1.087       .  S
C717        C718   1.352       .  D
C717        H719   1.086       .  S
C718        H720   1.088       .  S
C721        C722   1.341       .  D
C721        H723   1.087       .  S
C722        H724   1.088       .  S
C725        C726   1.354       .  D
C725        H727   1.086       .  S
C726        H728   1.087       .  S
C729        C730   1.352       .  D
C729        H731   1.085       .  S
C730        H732   1.089       .  S
C733        C734   1.356       .  D
C733        H735   1.085       .  S
C734        H736   1.087       .  S
C737        C738   1.347       .  D
C737        H739   1.087       .  S
C738        H740   1.085       .  S
C741        C742   1.363       .  D
C741        H743   1.085       .  S
C742        H744   1.086       .  S
C745        C746   1.358       .  D
C745        H747   1.087       .  S
C746        H748   1.085       .  S
C749        C750   1.361       .  D
C749        H751   1.087       .  S
C750        H752   1.087       .  S
C753        C754   1.350       .  D
C753        H755   1.088       .  S
C754        H756   1.086       .  S
C757        C758   1.336       .  D
C757        H759   1.088       .  S
C758        H760   1.088       .  S
C761        C762   1.360       .  D
C761        H763   1.085       .  S
C762        H764   1.086       .  S
C765        C766   1.339       .  D
C765        H767   1.087       .  S
C766        H768   1.086       .  S
C769        C770   1.354       .  D
C769        H771   1.086       .  S
C770        H772   1.087       .  S
C773        C774   1.353       .  D
C773        H775   1.086       .  S
C774        H776   1.088       .  S
C777        C778   1.352   1_455  D
C777        H779   1.087   1_455  S
C778        H780   1.085   1_655  S
C781        C782   1.340       .  D
C781        H783   1.088       .  S
C782        H784   1.088       .  S
C785        C786   1.359       .  D
C785        H787   1.085       .  S
C786        H788   1.086       .  S
C789        C790   1.358       .  D
C789        H791   1.087       .  S
C790        H792   1.085       .  S
C793        C794   1.356       .  D
C793        H795   1.086       .  S
C794        H796   1.089       .  S
C797        C798   1.356       .  D
C797        H799   1.086       .  S
C798        H800   1.087       .  S
C801        C802   1.345       .  D
C801        H803   1.086       .  S
C802        H804   1.085       .  S
C805        C806   1.356       .  D
C805        H807   1.085       .  S
C806        H808   1.087       .  S
C809        C810   1.334       .  D
C809        H811   1.089       .  S
C810        H812   1.087       .  S
C813        C814   1.356       .  D
C813        H815   1.086       .  S
C814        H816   1.085       .  S
