geometry optimzed in LAMMPS
_audit_creation_date              2020-12-01 
_audit_creation_method            'lammps2cif' 
_symmetry_space_group_name_H-M    'P1' 
_symmetry_Int_Tables_number       1 
_symmetry_cell_setting            triclinic 
loop_ 
_symmetry_equiv_pos_as_xyz 
  x,y,z 
_cell_length_a                    31.20106865 
_cell_length_b                    31.439117171384805 
_cell_length_c                    32.39332717239437 
_cell_angle_alpha                 90.00487566821921 
_cell_angle_beta                  89.96701704380484 
_cell_angle_gamma                 90.08114728944739 
loop_ 
_atom_site_label 
_atom_site_type_symbol 
_atom_site_fract_x 
_atom_site_fract_y 
_atom_site_fract_z 
_atom_site_charge 
Fe1        Fe  0.09369027  0.59904432  0.25109370     1.65800
Fe2        Fe  0.19939386  0.62340588  0.24650136     1.73200
Fe3        Fe  0.12448949  0.70196668  0.25233764     1.54400
O4          O  0.08281618  0.69677632  0.20294117    -0.82600
O5          O  0.22074709  0.66930184  0.28812747    -0.80900
O6          O  0.05067140  0.63549111  0.21755787    -0.85100
O7          O  0.07087968  0.62250505  0.30564864    -0.80000
O8          O  0.17146414  0.71936263  0.21039069    -0.81800
O9          O  0.19287409  0.58286759  0.29615043    -0.84500
C10         C  0.06174147  0.66045289  0.31541966     0.96300
C11         C  0.05302147  0.66994449  0.19730307     1.03700
O12         O  0.13941332  0.64160321  0.24994174    -1.13500
O13         O  0.18540435  0.57501843  0.20406919    -0.75900
O14         O  0.11426362  0.57325917  0.19672298    -0.79400
O15         O  0.07502607  0.69253906  0.29505688    -0.80100
C16         C  0.15163965  0.56281890  0.18522698     0.95200
O17         O  0.12844475  0.55507020  0.28468416    -0.78000
O18         O  0.21189951  0.66287979  0.19711134    -0.83200
C19         C  0.20341271  0.69930961  0.30852855     0.97800
C20         C  0.20088676  0.70105604  0.18999597     1.03700
O21         O  0.16560819  0.71236280  0.30119236    -0.78900
C22         C  0.16409931  0.55543717  0.30338585     1.02000
Fe23       Fe  0.38756940  0.90242557  0.99757988     1.65800
Fe24       Fe  0.28633760  0.86711171  0.49795272     1.73200
Fe25       Fe  0.36889468  0.79506207  0.50048395     1.54400
O26         O  0.41942897  0.80737761  0.46018412    -0.82600
O27         O  0.27176783  0.82567825  0.04562957    -0.80900
O28         O  0.42237695  0.87766717  0.45033463    -0.85100
O29         O  0.42788607  0.87430025  0.03906055    -0.80000
O30         O  0.33177542  0.77840420  0.44973388    -0.81800
O31         O  0.28873996  0.91525939  0.04221331    -0.84500
C32         C  0.43069339  0.83990428  0.05897020     0.96300
C33         C  0.43481671  0.84014661  0.44250099     1.03700
O34         O  0.34813912  0.85439663  0.49923408    -1.13500
O35         O  0.29198976  0.90966337  0.44944733    -0.75900
O36         O  0.35547995  0.93978853  0.46029184    -0.79400
O37         O  0.40804768  0.80755600  0.04983865    -0.80100
C38         C  0.31981561  0.93799897  0.44177144     0.95200
O39         O  0.35814515  0.93204848  0.04649045    -0.78000
O40         O  0.27429340  0.82025360  0.45462824    -0.83200
C41         C  0.28782252  0.79066438  0.05729731     0.97800
C42         C  0.29492828  0.79024573  0.43742173     1.03700
O43         O  0.32200194  0.77571543  0.04195106    -0.78900
C44         C  0.31972380  0.93517479  0.05879804     1.02000
Fe45       Fe  0.89462269  0.59600577  0.50606885     1.65800
Fe46       Fe  0.78764105  0.62051231  0.50165445     1.73200
Fe47       Fe  0.86562559  0.70007990  0.00129479     1.54400
O48         O  0.90933447  0.69635114  0.04948604    -0.82600
O49         O  0.77009879  0.66206271  0.45521248    -0.80900
O50         O  0.92951625  0.62849880  0.05282046    -0.85100
O51         O  0.93041641  0.62271517  0.45964737    -0.80000
O52         O  0.81984337  0.71629382  0.04472583    -0.81800
O53         O  0.79773578  0.57448003  0.45681034    -0.84500
C54         C  0.93393503  0.65904337  0.44302079     0.96300
C55         C  0.93156335  0.66667272  0.06509518     1.03700
O56         O  0.85008156  0.63898213  0.00402736    -1.13500
O57         O  0.79557654  0.57496458  0.04797445    -0.75900
O58         O  0.86560074  0.56409830  0.05582996    -0.79400
O59         O  0.91091567  0.69055601  0.45350442    -0.80100
C60         C  0.82699871  0.55767324  0.06614526     0.95200
O61         O  0.86659259  0.55714160  0.46246718    -0.78000
O62         O  0.77208393  0.66340351  0.04840443    -0.83200
C63         C  0.78562030  0.69542490  0.43908419     0.97800
C64         C  0.78689772  0.69891857  0.06056743     1.03700
O65         O  0.82091125  0.71160797  0.45073657    -0.78900
C66         C  0.82989106  0.55232120  0.44613921     1.02000
Fe67       Fe  0.60047903  0.89945690  0.25142141     1.65800
Fe68       Fe  0.70353007  0.86561244  0.25037149     1.73200
Fe69       Fe  0.62060208  0.79334614  0.24975638     1.54400
O70         O  0.57237692  0.80536067  0.29288549    -0.82600
O71         O  0.71446787  0.82563198  0.20120413    -0.80900
O72         O  0.57080629  0.87568493  0.30271064    -0.85100
O73         O  0.55735672  0.86965025  0.21333641    -0.80000
O74         O  0.66013823  0.77567411  0.29815534    -0.81800
O75         O  0.69744803  0.91525496  0.20784284    -0.84500
C76         C  0.55491830  0.83524741  0.19314037     0.96300
C77         C  0.55917044  0.83823323  0.31200971     1.03700
O78         O  0.64170724  0.85259932  0.25066393    -1.13500
O79         O  0.69951342  0.90687105  0.30007861    -0.75900
O80         O  0.63643828  0.93763957  0.28965219    -0.79400
O81         O  0.57943111  0.80409323  0.20058438    -0.80100
C82         C  0.67193134  0.93517204  0.30838921     0.95200
O83         O  0.62721934  0.92605191  0.19983197    -0.78000
O84         O  0.71755656  0.81758575  0.29194961    -0.83200
C85         C  0.69834418  0.79052420  0.18962590     0.97800
C86         C  0.69803228  0.78631729  0.30828880     1.03700
O87         O  0.66556931  0.77405849  0.20660141    -0.78900
C88         C  0.66582396  0.93172106  0.18889974     1.02000
Fe89       Fe  0.09361416  0.39625755  0.49287364     1.65800
Fe90       Fe  0.19914823  0.37161557  0.99810069     1.73200
Fe91       Fe  0.12455352  0.29047532  0.99852325     1.54400
O92         O  0.07890913  0.29810210  0.04460463    -0.82600
O93         O  0.21900844  0.32629427  0.45537803    -0.80900
O94         O  0.05869126  0.36612723  0.04086482    -0.85100
O95         O  0.06218256  0.36485807  0.44646520    -0.80000
O96         O  0.16846943  0.27804849  0.04433589    -0.81800
O97         O  0.19356437  0.41406063  0.45031914    -0.84500
C98         C  0.05760411  0.32634043  0.43616485     0.96300
C99         C  0.05720923  0.32961700  0.05744155     1.03700
O100        O  0.13858118  0.35203860  0.99661853    -1.13500
O101        O  0.18746769  0.41753707  0.04274222    -0.75900
O102        O  0.11855890  0.43386915  0.03640867    -0.79400
O103        O  0.07681159  0.29603846  0.45395694    -0.80100
C104        C  0.15486320  0.43914315  0.05312965     0.95200
O105        O  0.12421782  0.43102182  0.44778002    -0.78000
O106        O  0.21629147  0.33056304  0.04550522    -0.83200
C107        C  0.20263478  0.29283611  0.43989170     0.97800
C108        C  0.20144409  0.29574883  0.05938281     1.03700
O109        O  0.16684196  0.27766171  0.45160347    -0.78900
C110        C  0.16246921  0.43473987  0.43516393     1.02000
Fe111      Fe  0.38855278  0.09141713  0.25105375     1.65800
Fe112      Fe  0.36775810  0.19858860  0.24859473     1.73200
Fe113      Fe  0.28471756  0.12604163  0.24840856     1.54400
O114        O  0.29036450  0.07921130  0.20359614    -0.82600
O115        O  0.32532688  0.21748921  0.29424804    -0.80900
O116        O  0.35777527  0.05645947  0.20657451    -0.85100
O117        O  0.35657084  0.05957227  0.29703223    -0.80000
O118        O  0.27269884  0.16876883  0.20139300    -0.81800
O119        O  0.41283196  0.18924612  0.29494311    -0.84500
C120        C  0.31838090  0.05857683  0.31022054     0.96300
C121        C  0.32041636  0.05511296  0.19145468     1.03700
O122        O  0.34694306  0.13873058  0.24940483    -1.13500
O123        O  0.41240517  0.18687697  0.20245693    -0.75900
O124        O  0.42508484  0.11713861  0.20470265    -0.79400
O125        O  0.28860765  0.08156701  0.29562526    -0.80100
C126        C  0.43056865  0.15357243  0.18885153     0.95200
O127        O  0.42481940  0.11951822  0.29620635    -0.78000
O128        O  0.32545247  0.21653045  0.20247027    -0.83200
C129        C  0.28902140  0.20450036  0.30684138     0.97800
C130        C  0.29067892  0.20213004  0.18761912     1.03700
O131        O  0.27092330  0.17137636  0.29265328    -0.78900
C132        C  0.43087687  0.15666429  0.31011154     1.02000
Fe133      Fe  0.60049821  0.08864645  0.49692647     1.65800
Fe134      Fe  0.62099231  0.19695659  0.99938326     1.73200
Fe135      Fe  0.70310783  0.12329593  0.00011545     1.54400
O136        O  0.69685135  0.07863534  0.04691564    -0.82600
O137        O  0.66641211  0.21459968  0.45805523    -0.80900
O138        O  0.63088367  0.05354534  0.03839875    -0.85100
O139        O  0.63220072  0.06064031  0.44857034    -0.80000
O140        O  0.71610893  0.16831218  0.04463547    -0.81800
O141        O  0.57827916  0.18726163  0.45328591    -0.84500
C142        C  0.67134883  0.05677247  0.43897222     0.96300
C143        C  0.66697804  0.05295222  0.05627581     1.03700
O144        O  0.64112436  0.13704618  0.99861127    -1.13500
O145        O  0.57352646  0.18498148  0.04304621    -0.75900
O146        O  0.56378514  0.11473671  0.04402620    -0.79400
O147        O  0.70139190  0.07568685  0.45796850    -0.80100
C148        C  0.55567046  0.15176010  0.05748904     0.95200
O149        O  0.56285758  0.11843220  0.45426073    -0.78000
O150        O  0.66147810  0.21383206  0.04723724    -0.83200
C151        C  0.70168250  0.19998599  0.44438673     0.97800
C152        C  0.69792157  0.20102492  0.05936439     1.03700
O153        O  0.71828756  0.16573227  0.45765913    -0.78900
C154        C  0.55745542  0.15545566  0.43996136     1.02000
Fe155      Fe  0.89425840  0.39207198  0.25146064     1.65800
Fe156      Fe  0.78841658  0.36490928  0.25294488     1.73200
Fe157      Fe  0.86600105  0.28734348  0.24759757     1.54400
O158        O  0.91390626  0.29743689  0.20344596    -0.82600
O159        O  0.77557710  0.32294430  0.30030584    -0.80900
O160        O  0.92538807  0.36736308  0.20142191    -0.85100
O161        O  0.93298759  0.35899046  0.29111764    -0.80000
O162        O  0.82389221  0.27514927  0.20009783    -0.81800
O163        O  0.79812914  0.41157024  0.29785730    -0.84500
C164        C  0.93442996  0.32203058  0.30654713     0.96300
C165        C  0.93254081  0.33002963  0.18847035     1.03700
O166        O  0.84950047  0.34801180  0.25052160    -1.13500
O167        O  0.79467347  0.40865386  0.20542429    -0.75900
O168        O  0.86191142  0.43154415  0.21182180    -0.79400
O169        O  0.90970492  0.29225158  0.29525470    -0.80100
C170        C  0.82519498  0.43324379  0.19523680     0.95200
O171        O  0.86865879  0.42132789  0.30202491    -0.78000
O172        O  0.76987217  0.32054872  0.20907896    -0.83200
C173        C  0.78948808  0.28631541  0.30991829     0.97800
C174        C  0.78683777  0.28888410  0.19104339     1.03700
O175        O  0.82100548  0.26922844  0.29145400    -0.78900
C176        C  0.83099049  0.42771267  0.31500929     1.02000
C177        C  0.72057460  0.22533915  0.09183034    -0.07100
C178        C  0.69731979  0.24093681  0.12568359    -0.18200
C179        C  0.71789817  0.26109673  0.15878200     0.10100
C180        C  0.76286333  0.26711461  0.15767915    -0.07000
C181        C  0.78589114  0.25212580  0.12344700    -0.18200
C182        C  0.76537139  0.23211238  0.09040684     0.10200
S183        S  0.68525383  0.27568159  0.20248402    -0.33200
S184        S  0.79809155  0.21808659  0.04652205    -0.33200
H185        H  0.76683323  0.22782500  0.01674182     0.28200
H186        H  0.71542147  0.26286114  0.23226652     0.28200
H187        H  0.66307086  0.23594419  0.12717168     0.18800
H188        H  0.82015154  0.25699326  0.12186419     0.18800
C189        C  0.72450654  0.22305593  0.41096981    -0.07100
C190        C  0.74614703  0.19901476  0.38095427    -0.18200
C191        C  0.76785800  0.21838124  0.34812767     0.10100
C192        C  0.76811595  0.26329859  0.34452508    -0.07000
C193        C  0.74648805  0.28731509  0.37471021    -0.18200
C194        C  0.72528260  0.26794017  0.40789218     0.10200
S195        S  0.79214307  0.18366168  0.31067893    -0.33200
S196        S  0.70137484  0.30261556  0.44578804    -0.33200
H197        H  0.71307307  0.27777676  0.48003667     0.28200
H198        H  0.83396464  0.19533741  0.32243866     0.28200
H199        H  0.74564195  0.16458308  0.38267903     0.18800
H200        H  0.74674608  0.32173975  0.37298405     0.18800
C201        C  0.45932759  0.15652635  0.15280669    -0.07100
C202        C  0.49186425  0.18737621  0.15226728    -0.18200
C203        C  0.52393790  0.18679645  0.12188059     0.10100
C204        C  0.52283008  0.15546588  0.09046549    -0.07000
C205        C  0.48903588  0.12587682  0.09028221    -0.18200
C206        C  0.45734997  0.12622465  0.12066102     0.10200
S207        S  0.56714329  0.22437669  0.12714028    -0.33200
S208        S  0.41485838  0.08741956  0.11618332    -0.33200
H209        H  0.38268787  0.11362179  0.13287411     0.28200
H210        H  0.59911350  0.19414982  0.11845519     0.28200
H211        H  0.49378204  0.21047633  0.17703567     0.18800
H212        H  0.48701734  0.10226036  0.06597596     0.18800
C213        C  0.52405475  0.16043659  0.40767095    -0.07100
C214        C  0.48928393  0.13205546  0.40918806    -0.18200
C215        C  0.45741663  0.13217873  0.37918757     0.10100
C216        C  0.45984533  0.16108999  0.34595028    -0.07000
C217        C  0.49309951  0.19129864  0.34531473    -0.18200
C218        C  0.52553089  0.19096153  0.37550658     0.10200
S219        S  0.41427179  0.09452366  0.38545596    -0.33200
S220        S  0.56920824  0.22795872  0.36937442    -0.33200
H221        H  0.60132485  0.19788737  0.37810057     0.28200
H222        H  0.38265446  0.12096980  0.36821144     0.28200
H223        H  0.48674703  0.10925084  0.43417476     0.18800
H224        H  0.49528291  0.21354254  0.31984792     0.18800
C225        C  0.02930866  0.32468138  0.09377819    -0.07100
C226        C  0.99500581  0.29577930  0.09238019    -0.18200
C227        C  0.96280064  0.29634446  0.12270452     0.10100
C228        C  0.96569454  0.32543982  0.15592044    -0.07000
C229        C  0.00142753  0.35262856  0.15813487    -0.18200
C230        C  0.03305934  0.35258278  0.12770597     0.10200
S231        S  0.91704020  0.26238581  0.11502863    -0.33200
S232        S  0.07701942  0.38958043  0.13376391    -0.33200
H233        H  0.10734601  0.36621466  0.11110629     0.28200
H234        H  0.88723573  0.29377659  0.12649713     0.28200
H235        H  0.99170840  0.27473220  0.06606916     0.18800
H236        H  0.00464899  0.37454482  0.18379029     0.18800
C237        C  0.96741386  0.31439653  0.33818307    -0.07100
C238        C  0.00838196  0.33109428  0.33060743    -0.18200
C239        C  0.03943199  0.33225897  0.36144451     0.10100
C240        C  0.02933025  0.31713204  0.40118641    -0.07000
C241        C  0.98926472  0.29824007  0.40845890    -0.18200
C242        C  0.95824209  0.29638257  0.37718856     0.10200
S243        S  0.09078239  0.35507907  0.34860650    -0.33200
S244        S  0.90622681  0.27543517  0.39018596    -0.33200
H245        H  0.90604570  0.24587647  0.35760669     0.28200
H246        H  0.11469711  0.33206988  0.37781413     0.28200
H247        H  0.01587054  0.34453530  0.30062494     0.18800
H248        H  0.98136549  0.28687696  0.43912575     0.18800
C249        C  0.22388002  0.27398002  0.09383229    -0.07100
C250        C  0.26892037  0.27303244  0.09404525    -0.18200
C251        C  0.29159894  0.24873031  0.12308254     0.10100
C252        C  0.26901204  0.22593476  0.15392103    -0.07000
C253        C  0.22401310  0.22722193  0.15380645    -0.18200
C254        C  0.20136262  0.25100873  0.12457799     0.10200
S255        S  0.34897897  0.24564316  0.11712107    -0.33200
S256        S  0.14374786  0.25186208  0.12937692    -0.33200
H257        H  0.13946800  0.29477544  0.11793084     0.28200
H258        H  0.35166759  0.20219818  0.12732096     0.28200
H259        H  0.28658045  0.28965389  0.07014675     0.18800
H260        H  0.20618677  0.21041196  0.17746923     0.18800
C261        C  0.26683064  0.22886311  0.33965051    -0.07100
C262        C  0.29060599  0.24358537  0.37359213    -0.18200
C263        C  0.27060968  0.26390880  0.40697239     0.10100
C264        C  0.22578100  0.27070345  0.40623411    -0.07000
C265        C  0.20217022  0.25653065  0.37200633    -0.18200
C266        C  0.22214308  0.23636904  0.33863349     0.10200
S267        S  0.30374309  0.27801465  0.45049952    -0.33200
S268        S  0.18903179  0.22295984  0.29486599    -0.33200
H269        H  0.22042069  0.23225178  0.26496472     0.28200
H270        H  0.27753040  0.27438692  0.97676622     0.28200
H271        H  0.32480661  0.23777079  0.37485695     0.18800
H272        H  0.16794741  0.26223612  0.37073165     0.18800
C273        C  0.67334731  0.95851177  0.15227945    -0.07100
C274        C  0.69867265  0.99527619  0.15573896    -0.18200
C275        C  0.69858674  0.02639868  0.12459017     0.10100
C276        C  0.67324916  0.02019124  0.08876981    -0.07000
C277        C  0.65062280  0.98172019  0.08440471    -0.18200
C278        C  0.65061976  0.95094530  0.11539486     0.10200
S279        S  0.72846407  0.07447618  0.13416346    -0.33200
S280        S  0.62037969  0.90281100  0.10624115    -0.33200
H281        H  0.64577430  0.87639819  0.13130902     0.28200
H282        H  0.69491766  0.10179251  0.12243956     0.28200
H283        H  0.71619443  0.00118860  0.18404578     0.18800
H284        H  0.63210079  0.97570565  0.05670792     0.18800
C285        C  0.68026252  0.96711882  0.34089627    -0.07100
C286        C  0.66879033  0.00948248  0.33262366    -0.18200
C287        C  0.66955351  0.04044709  0.36352785     0.10100
C288        C  0.68155079  0.02896237  0.40391140    -0.07000
C289        C  0.69590338  0.98747633  0.41179414    -0.18200
C290        C  0.69507751  0.95629249  0.38080443     0.10200
S291        S  0.65286431  0.09365042  0.35012467    -0.33200
S292        S  0.70918504  0.90272647  0.39525141    -0.33200
H293        H  0.67519526  0.88322950  0.37386378     0.28200
H294        H  0.67636330  0.11453213  0.38114721     0.28200
H295        H  0.65794619  0.01829158  0.30200841     0.18800
H296        H  0.70469772  0.97852154  0.44297346     0.18800
C297        C  0.81883568  0.46601635  0.16319045    -0.07100
C298        C  0.83601473  0.50654400  0.17080796    -0.18200
C299        C  0.83628235  0.53793444  0.14040937     0.10100
C300        C  0.81902522  0.52897332  0.10117578    -0.07000
C301        C  0.79949433  0.48937826  0.09402930    -0.18200
C302        C  0.79984242  0.45750234  0.12440530     0.07000
S303        S  0.86040993  0.58839735  0.15320360    -0.33200
S304        S  0.77956724  0.40573145  0.11037432    -0.33200
H305        H  0.81228837  0.38267465  0.13012433     0.28200
H306        H  0.83613847  0.61291688  0.12546109     0.28200
H307        H  0.85031121  0.51354341  0.20054726     0.18800
H308        H  0.78674767  0.48219592  0.06369695     0.18800
C309        C  0.82535656  0.51858743  0.41409658    -0.07100
C310        C  0.85406688  0.48416795  0.41565349    -0.18200
C311        C  0.85445930  0.45271929  0.38525148     0.10100
C312        C  0.82607308  0.45563722  0.35141089    -0.07000
C313        C  0.79600274  0.48878939  0.35045304    -0.18200
C314        C  0.79518243  0.52010639  0.38138585     0.10200
S315        S  0.89213141  0.40961268  0.39158358    -0.33200
S316        S  0.75753715  0.56294133  0.37523477    -0.33200
H317        H  0.73529371  0.55257693  0.41168398     0.28200
H318        H  0.86622789  0.37847296  0.37279516     0.28200
H319        H  0.87670333  0.48162244  0.44089712     0.18800
H320        H  0.77426835  0.49140817  0.32449075     0.18800
C321        C  0.76187869  0.71648973  0.40511698    -0.07100
C322        C  0.78481397  0.73000323  0.37026971    -0.18200
C323        C  0.76471962  0.75196687  0.33793137     0.10100
C324        C  0.72046591  0.76141890  0.34065235    -0.07000
C325        C  0.69733029  0.74739848  0.37529704    -0.18200
C326        C  0.71745784  0.72513723  0.40737169     0.10200
S327        S  0.79562433  0.76567919  0.29256311    -0.33200
S328        S  0.68577557  0.71201607  0.45205074    -0.33200
H329        H  0.68992132  0.66793612  0.44582817     0.28200
H330        H  0.83606938  0.75461624  0.30837140     0.28200
H331        H  0.81860523  0.72286212  0.36826748     0.18800
H332        H  0.66349894  0.75473095  0.37789523     0.18800
C333        C  0.76462592  0.72125449  0.09453224    -0.07100
C334        C  0.71961743  0.72251062  0.09453980    -0.18200
C335        C  0.69703975  0.74568489  0.12440282     0.10100
C336        C  0.71981604  0.76732807  0.15578302    -0.07000
C337        C  0.76475013  0.76577613  0.15588504    -0.18200
C338        C  0.78727469  0.74267008  0.12613073     0.10200
S339        S  0.63955155  0.74839792  0.11926723    -0.33200
S340        S  0.84470085  0.73992058  0.13171021    -0.33200
H341        H  0.84775510  0.69730807  0.11886815     0.28200
H342        H  0.63632385  0.79113002  0.13176746     0.28200
H343        H  0.70194163  0.70660034  0.07021725     0.18800
H344        H  0.78250539  0.78161150  0.18020997     0.18800
C345        C  0.31156901  0.96282620  0.09454686    -0.07100
C346        C  0.29597920  0.00409331  0.08788909    -0.18200
C347        C  0.29587839  0.03431542  0.11970831     0.10100
C348        C  0.31235769  0.02328616  0.15885306    -0.07000
C349        C  0.32613423  0.98139092  0.16584239    -0.18200
C350        C  0.32520264  0.95094353  0.13440280     0.10200
S351        S  0.27917561  0.08759074  0.10734448    -0.33200
S352        S  0.34295163  0.89779706  0.14675671    -0.33200
H353        H  0.31948830  0.87685361  0.11576815     0.28200
H354        H  0.24809459  0.08895163  0.13875930     0.28200
H355        H  0.28548012  0.01341668  0.05740367     0.18800
H356        H  0.33848577  0.97252385  0.19589259     0.18800
C357        C  0.31121410  0.97016499  0.40967609    -0.07100
C358        C  0.30272821  0.95645156  0.36931416    -0.18200
C359        C  0.30167107  0.98525966  0.33639756     0.10100
C360        C  0.30892443  0.02888322  0.34398844    -0.07000
C361        C  0.31463121  0.04299924  0.38459102    -0.18200
C362        C  0.31613387  0.01418375  0.41745094     0.10200
S363        S  0.29396463  0.96402398  0.28517850    -0.33200
S364        S  0.32583840  0.03541975  0.46830515    -0.33200
H365        H  0.30343046  0.00319754  0.48918729     0.28200
H366        H  0.27693010  0.00119720  0.26761486     0.28200
H367        H  0.29941686  0.92286289  0.36291619     0.18800
H368        H  0.31976208  0.07653228  0.39054389     0.18800
C369        C  0.46184087  0.83834271  0.09389604    -0.07100
C370        C  0.47529293  0.79879332  0.10970182    -0.18200
C371        C  0.50506766  0.79609973  0.14223943     0.10100
C372        C  0.52304457  0.83376270  0.15892385    -0.07000
C373        C  0.50999642  0.87297531  0.14256014    -0.18200
C374        C  0.47948976  0.87592297  0.11146111     0.10200
S375        S  0.51733045  0.74392953  0.16178966    -0.33200
S376        S  0.46420438  0.92940066  0.09750777    -0.33200
H377        H  0.42022566  0.92122705  0.10194728     0.28200
H378        H  0.51388437  0.75600693  0.20348694     0.28200
H379        H  0.46225150  0.76966864  0.09695023     0.18800
H380        H  0.52335355  0.90234154  0.15452446     0.18800
C381        C  0.46929770  0.83492439  0.41198761    -0.07100
C382        C  0.46273050  0.80830552  0.37782788    -0.18200
C383        C  0.49181932  0.80794074  0.34483583     0.10100
C384        C  0.52902110  0.83365580  0.34676504    -0.07000
C385        C  0.53648517  0.85845262  0.38203341    -0.18200
C386        C  0.50733882  0.85914648  0.41464503     0.10200
S387        S  0.47763741  0.77720649  0.29987866    -0.33200
S388        S  0.52056125  0.89155879  0.45884707    -0.33200
H389        H  0.50129429  0.86447965  0.48802311     0.28200
H390        H  0.49112184  0.80798431  0.27111963     0.28200
H391        H  0.43345773  0.78981243  0.37563819     0.18800
H392        H  0.56521065  0.87781764  0.38404559     0.18800
C393        C  0.15552762  0.53407297  0.14928197    -0.07100
C394        C  0.18445036  0.49999141  0.15120997    -0.18200
C395        C  0.18604276  0.46919223  0.11997704     0.10100
C396        C  0.15825833  0.47240436  0.08560695    -0.07000
C397        C  0.13040161  0.50748364  0.08314409    -0.18200
C398        C  0.12866601  0.53822089  0.11441523     0.10200
S399        S  0.22130665  0.42469364  0.12772080    -0.33200
S400        S  0.09278871  0.58308887  0.10881674    -0.33200
H401        H  0.07259480  0.56961000  0.07226487     0.28200
H402        H  0.24683833  0.43515265  0.09335688     0.28200
H403        H  0.20483879  0.49637926  0.17804953     0.18800
H404        H  0.10960023  0.51067145  0.05659122     0.18800
C405        C  0.17133487  0.52311851  0.33547675    -0.07100
C406        C  0.18000135  0.53676649  0.37585510    -0.18200
C407        C  0.17970730  0.50806440  0.40889224     0.10100
C408        C  0.17068369  0.46473704  0.40135594    -0.07000
C409        C  0.16433423  0.45075443  0.36078611    -0.18200
C410        C  0.16463498  0.47939000  0.32776643     0.10200
S411        S  0.18792542  0.52918773  0.46009502    -0.33200
S412        S  0.15549302  0.45837442  0.27667913    -0.33200
H413        H  0.17972088  0.48941033  0.25581571     0.28200
H414        H  0.20500053  0.49197200  0.47748839     0.28200
H415        H  0.18476127  0.57030304  0.38203545     0.18800
H416        H  0.15814348  0.41742649  0.35491702     0.18800
C417        C  0.02037086  0.67773911  0.16514054    -0.07100
C418        C  0.03413232  0.68592532  0.12464140    -0.18200
C419        C  0.00525671  0.68505728  0.09148672     0.10100
C420        C  0.96151258  0.67633828  0.09896031    -0.07000
C421        C  0.94737559  0.67073689  0.13965220    -0.18200
C422        C  0.97618165  0.67148571  0.17275511     0.10200
S423        S  0.02680679  0.69181676  0.04018461    -0.33200
S424        S  0.95472619  0.66341356  0.22387841    -0.33200
H425        H  0.98607320  0.68789151  0.24406777     0.28200
H426        H  0.98906583  0.70698926  0.02175807     0.28200
H427        H  0.06797362  0.69048946  0.11845745     0.18800
H428        H  0.91387447  0.66435058  0.14559251     0.18800
C429        C  0.03307463  0.66669476  0.35102318    -0.07100
C430        C  0.99521293  0.69004028  0.34552957    -0.18200
C431        C  0.96216611  0.68844068  0.37482948     0.10100
C432        C  0.96767033  0.66425509  0.41125629    -0.07000
C433        C  0.00679336  0.64317812  0.41769059    -0.18200
C434        C  0.03944069  0.64426528  0.38823659     0.10200
S435        S  0.91257333  0.71438103  0.36193885    -0.33200
S436        S  0.08842439  0.61618613  0.39987038    -0.33200
H437        H  0.11537349  0.64245820  0.37609046     0.28200
H438        H  0.88646992  0.68106393  0.37649846     0.28200
H439        H  0.99003053  0.70710384  0.31692244     0.18800
H440        H  0.01194587  0.62539677  0.44592886     0.18800
C441        C  0.26580928  0.76683294  0.09059425    -0.07100
C442        C  0.24530075  0.79008961  0.12180366    -0.18200
C443        C  0.22391111  0.76987751  0.15426062     0.10100
C444        C  0.22299369  0.72480345  0.15633252    -0.07000
C445        C  0.24406968  0.70155993  0.12523718    -0.18200
C446        C  0.26474071  0.72186568  0.09228838     0.10200
S447        S  0.20036938  0.80385145  0.19281974    -0.33200
S448        S  0.28705421  0.68838703  0.05250964    -0.33200
H449        H  0.27216993  0.71315116  0.52016840     0.28200
H450        H  0.15833234  0.79382468  0.18034298     0.28200
H451        H  0.24622385  0.82456321  0.12115653     0.18800
H452        H  0.24345944  0.66709989  0.12583800     0.18800
C453        C  0.22846765  0.72137188  0.34121131    -0.07100
C454        C  0.22264715  0.76536509  0.34579557    -0.18200
C455        C  0.24571069  0.78876230  0.37498927     0.10100
C456        C  0.27439077  0.76784159  0.40208097    -0.07000
C457        C  0.28126346  0.72400247  0.39679500    -0.18200
C458        C  0.25864935  0.70061252  0.36693697     0.10200
S459        S  0.23902360  0.84564661  0.37406070    -0.33200
S460        S  0.26799072  0.64412031  0.36510956    -0.33200
H461        H  0.22447503  0.63374357  0.36012999     0.28200
H462        H  0.28259309  0.85368997  0.38190753     0.28200
H463        H  0.20080813  0.78207372  0.32547242     0.18800
H464        H  0.30311187  0.70742478  0.41719223     0.18800
Fe465      Fe  0.09132749  0.59997604  0.74822472     1.65800
Fe466      Fe  0.19759075  0.62359320  0.74692409     1.73200
Fe467      Fe  0.12249866  0.70283946  0.75129839     1.54400
O468        O  0.08090512  0.69841798  0.70162463    -0.82600
O469        O  0.21747068  0.66796519  0.79059992    -0.80900
O470        O  0.04928918  0.63634951  0.71368542    -0.85100
O471        O  0.06683843  0.62295444  0.80236414    -0.80000
O472        O  0.16954897  0.72023700  0.70931909    -0.81800
O473        O  0.19011192  0.58058097  0.79467494    -0.84500
C474        C  0.05914685  0.66075600  0.81372725     0.96300
C475        C  0.05171275  0.67135388  0.69445448     1.03700
O476        O  0.13739472  0.64226662  0.74886471    -1.13500
O477        O  0.18480174  0.57663402  0.70302447    -0.75900
O478        O  0.11373805  0.57430066  0.69428193    -0.79400
O479        O  0.07319901  0.69320860  0.79434795    -0.80100
C480        C  0.15151759  0.56407223  0.68372358     0.95200
O481        O  0.12469442  0.55605922  0.78255775    -0.78000
O482        O  0.21209609  0.66456264  0.69903941    -0.83200
C483        C  0.20022265  0.69897010  0.80959539     0.97800
C484        C  0.20031895  0.70222351  0.69055033     1.03700
O485        O  0.16340710  0.71331193  0.80025354    -0.78900
C486        C  0.16050925  0.55365264  0.80073816     1.02000
Fe487      Fe  0.38960813  0.90135430  0.49993448     1.65800
Fe488      Fe  0.28411571  0.86736892  0.99808067     1.73200
Fe489      Fe  0.36751456  0.79572711  0.99990570     1.54400
O490        O  0.41691697  0.80697814  0.95827779    -0.82600
O491        O  0.27328916  0.82608332  0.54603968    -0.80900
O492        O  0.42172175  0.87720028  0.94943425    -0.85100
O493        O  0.43059943  0.87113357  0.53948554    -0.80000
O494        O  0.32868805  0.77784224  0.95058429    -0.81800
O495        O  0.29091198  0.91573585  0.54145983    -0.84500
C496        C  0.43189877  0.83712825  0.56014746     0.96300
C497        C  0.43344321  0.83952710  0.94130530     1.03700
O498        O  0.34629092  0.85509316  0.99831252    -1.13500
O499        O  0.28811503  0.91080834  0.95016336    -0.75900
O500        O  0.35361483  0.93817647  0.95592276    -0.79400
O501        O  0.40769089  0.80576848  0.55174892    -0.80100
C502        C  0.31664777  0.93753292  0.93993103     0.95200
O503        O  0.36078374  0.92830617  0.55035132    -0.78000
O504        O  0.27199775  0.82096335  0.95448195    -0.83200
C505        C  0.28834536  0.79038537  0.55712675     0.97800
C506        C  0.29198988  0.79006574  0.93810552     1.03700
O507        O  0.32188864  0.77461650  0.54111708    -0.78900
C508        C  0.32188887  0.93328438  0.56046540     1.02000
Fe509      Fe  0.89564215  0.59571812  0.00847577     1.65800
Fe510      Fe  0.78899624  0.62095812  0.00254538     1.73200
Fe511      Fe  0.86396500  0.70000600  0.49805839     1.54400
O512        O  0.90904349  0.69705236  0.54531010    -0.82600
O513        O  0.77224795  0.66402062  0.95723862    -0.80900
O514        O  0.92853953  0.62909170  0.55018401    -0.85100
O515        O  0.93177325  0.62247032  0.96200497    -0.80000
O516        O  0.81931284  0.71665976  0.54225681    -0.81800
O517        O  0.79973212  0.57658481  0.95652457    -0.84500
C518        C  0.93593166  0.65917034  0.94616907     0.96300
C519        C  0.93109588  0.66754755  0.56153308     1.03700
O520        O  0.84871237  0.63890311  0.50183053    -1.13500
O521        O  0.79528933  0.57630427  0.54855576    -0.75900
O522        O  0.86537038  0.56426182  0.55357269    -0.79400
O523        O  0.91365997  0.69085798  0.95769568    -0.80100
C524        C  0.82722875  0.55885339  0.56572213     0.95200
O525        O  0.86772619  0.55679721  0.96474188    -0.78000
O526        O  0.77108853  0.66430304  0.54649307    -0.83200
C527        C  0.78840350  0.69714227  0.94127156     0.97800
C528        C  0.78634467  0.69972413  0.55842087     1.03700
O529        O  0.82397243  0.71261049  0.95299342    -0.78900
C530        C  0.83158728  0.55350551  0.94697968     1.02000
Fe531      Fe  0.60030554  0.89576337  0.75113838     1.65800
Fe532      Fe  0.70373284  0.86404415  0.75117928     1.73200
Fe533      Fe  0.62219231  0.79021321  0.75091427     1.54400
O534        O  0.57389573  0.80216785  0.79411700    -0.82600
O535        O  0.71532676  0.82429004  0.70200574    -0.80900
O536        O  0.57168718  0.87263499  0.80323194    -0.85100
O537        O  0.55708181  0.86452363  0.71470076    -0.80000
O538        O  0.66215146  0.77382470  0.79948155    -0.81800
O539        O  0.69668905  0.91341110  0.70874232    -0.84500
C540        C  0.55540461  0.83021904  0.69442106     0.96300
C541        C  0.56036991  0.83515370  0.81293570     1.03700
O542        O  0.64225468  0.84972933  0.75126383    -1.13500
O543        O  0.69843559  0.90536493  0.80074339    -0.75900
O544        O  0.63580540  0.93579173  0.78775742    -0.79400
O545        O  0.58057549  0.79952757  0.70165759    -0.80100
C546        C  0.67065652  0.93390629  0.80758970     0.95200
O547        O  0.62634456  0.92099938  0.69851871    -0.78000
O548        O  0.71890321  0.81655817  0.79281392    -0.83200
C549        C  0.69962703  0.78903891  0.69026921     0.97800
C550        C  0.69983432  0.78527043  0.80952966     1.03700
O551        O  0.66745212  0.77173219  0.70760159    -0.78900
C552        C  0.66501768  0.92812566  0.68860337     1.02000
Fe553      Fe  0.09180583  0.39411196  0.99324472     1.65800
Fe554      Fe  0.20036928  0.37140652  0.49850374     1.73200
Fe555      Fe  0.12414101  0.29193855  0.49841175     1.54400
O556        O  0.07993209  0.30025264  0.54554387    -0.82600
O557        O  0.21800621  0.32798102  0.95358272    -0.80900
O558        O  0.05760577  0.36729044  0.53827059    -0.85100
O559        O  0.05828266  0.36093055  0.94925025    -0.80000
O560        O  0.16901145  0.27790212  0.54299617    -0.81800
O561        O  0.19051331  0.41558195  0.95087923    -0.84500
C562        C  0.05646816  0.32279713  0.93703809     0.96300
C563        C  0.05677950  0.33151618  0.55638688     1.03700
O564        O  0.13945950  0.35321328  0.49663827    -1.13500
O565        O  0.18899514  0.41879515  0.54194684    -0.75900
O566        O  0.11935921  0.43361425  0.53821258    -0.79400
O567        O  0.07864750  0.29327143  0.95268416    -0.80100
C568        C  0.15618515  0.43950075  0.55355967     0.95200
O569        O  0.12011508  0.42661980  0.94556904    -0.78000
O570        O  0.21583937  0.33122890  0.54666806    -0.83200
C571        C  0.20295683  0.29328189  0.93946874     0.97800
C572        C  0.20146372  0.29569429  0.55898224     1.03700
O573        O  0.16858113  0.27650610  0.95287760    -0.78900
C574        C  0.15832443  0.43295873  0.93382357     1.02000
Fe575      Fe  0.38656517  0.09085675  0.75257840     1.65800
Fe576      Fe  0.36642900  0.19790431  0.74729145     1.73200
Fe577      Fe  0.28297139  0.12577065  0.74727360     1.54400
O578        O  0.28937947  0.07937809  0.70221578    -0.82600
O579        O  0.32306541  0.21782274  0.79178118    -0.80900
O580        O  0.35609277  0.05524643  0.70849214    -0.85100
O581        O  0.35366442  0.06034860  0.79868576    -0.80000
O582        O  0.27137872  0.16869934  0.70064888    -0.81800
O583        O  0.41070766  0.18952160  0.79440726    -0.84500
C584        C  0.31485886  0.05854621  0.80992709     0.96300
C585        C  0.31943060  0.05442609  0.69180412     1.03700
O586        O  0.34525862  0.13823066  0.74912403    -1.13500
O587        O  0.41188602  0.18488774  0.70225233    -0.75900
O588        O  0.42406367  0.11514486  0.70617428    -0.79400
O589        O  0.28543073  0.08076176  0.79381250    -0.80100
C590        C  0.43010386  0.15118345  0.68967097     0.95200
O591        O  0.42237885  0.11978595  0.79762918    -0.78000
O592        O  0.32531753  0.21505913  0.70010726    -0.83200
C593        C  0.28712577  0.20454182  0.80515480     0.97800
C594        C  0.29005756  0.20118351  0.68599918     1.03700
O595        O  0.26933439  0.17083386  0.79184947    -0.78900
C596        C  0.42859540  0.15732245  0.81044583     1.02000
Fe597      Fe  0.59910571  0.09044802  0.99609903     1.65800
Fe598      Fe  0.62144772  0.19530674  0.50147608     1.73200
Fe599      Fe  0.70412014  0.12229250  0.50337597     1.54400
O600        O  0.69709802  0.07717839  0.54958943    -0.82600
O601        O  0.66581837  0.21610975  0.95600782    -0.80900
O602        O  0.63174957  0.05129838  0.53908411    -0.85100
O603        O  0.62964381  0.06160151  0.94754994    -0.80000
O604        O  0.71602680  0.16708384  0.54852139    -0.81800
O605        O  0.57778132  0.18877466  0.95126187    -0.84500
C606        C  0.66849041  0.05753896  0.93698440     0.96300
C607        C  0.66738406  0.05088702  0.55774134     1.03700
O608        O  0.64207922  0.13556213  0.50067987    -1.13500
O609        O  0.57410501  0.18249951  0.54505492    -0.75900
O610        O  0.56434201  0.11220637  0.54472920    -0.79400
O611        O  0.69909726  0.07642756  0.95512551    -0.80100
C612        C  0.55627496  0.14897762  0.55892578     0.95200
O613        O  0.56103886  0.12017319  0.95365023    -0.78000
O614        O  0.66140978  0.21267995  0.54957162    -0.83200
C615        C  0.70050608  0.20108870  0.94153154     0.97800
C616        C  0.69750261  0.19993269  0.56258392     1.03700
O617        O  0.71668269  0.16628007  0.95385787    -0.78900
C618        C  0.55626055  0.15705083  0.93874523     1.02000
Fe619      Fe  0.89554765  0.39355120  0.75298169     1.65800
Fe620      Fe  0.78948429  0.36793446  0.75327639     1.73200
Fe621      Fe  0.86576616  0.28972988  0.74690178     1.54400
O622        O  0.91437887  0.30021223  0.70344344    -0.82600
O623        O  0.77669090  0.32702130  0.80131416    -0.80900
O624        O  0.92526295  0.37027760  0.70139535    -0.85100
O625        O  0.93492803  0.35852385  0.79082627    -0.80000
O626        O  0.82439746  0.27928631  0.69866189    -0.81800
O627        O  0.80010024  0.41560817  0.79693936    -0.84500
C628        C  0.93466636  0.32159534  0.80644424     0.96300
C629        C  0.93246430  0.33301020  0.68819119     1.03700
O630        O  0.85022342  0.35029339  0.75090124    -1.13500
O631        O  0.79671149  0.41045103  0.70519445    -0.75900
O632        O  0.86285251  0.43500028  0.71514230    -0.79400
O633        O  0.90855084  0.29297213  0.79532367    -0.80100
C634        C  0.82697769  0.43599047  0.69671600     0.95200
O635        O  0.87077867  0.42065285  0.80522192    -0.78000
O636        O  0.76942564  0.32277701  0.71049480    -0.83200
C637        C  0.78913589  0.28947234  0.80930040     0.97800
C638        C  0.78664533  0.29200021  0.69122642     1.03700
O639        O  0.81957373  0.27172599  0.78969974    -0.78900
C640        C  0.83285029  0.42948215  0.81602215     1.02000
C641        C  0.71979660  0.22509339  0.59461266    -0.07100
C642        C  0.69741851  0.23790109  0.63011452    -0.18200
C643        C  0.71824773  0.25934361  0.66237562     0.10100
C644        C  0.76221225  0.26974387  0.65853092    -0.07000
C645        C  0.78420244  0.25752866  0.62268281    -0.18200
C646        C  0.76360346  0.23583253  0.59073285     0.10200
S647        S  0.68775461  0.26961440  0.70861860    -0.33200
S648        S  0.79494100  0.22418067  0.54527799    -0.33200
H649        H  0.76131452  0.22999131  0.51701760     0.28200
H650        H  0.72131360  0.25967633  0.73597555     0.28200
H651        H  0.66399865  0.22959106  0.63355221     0.18800
H652        H  0.81767927  0.26554893  0.61916936     0.18800
C653        C  0.72320525  0.22459749  0.90847862    -0.07100
C654        C  0.74280776  0.20105713  0.87689370    -0.18200
C655        C  0.76474342  0.22099812  0.84458246     0.10100
C656        C  0.76725682  0.26596666  0.84317482    -0.07000
C657        C  0.74742743  0.28950338  0.87481484    -0.18200
C658        C  0.72603530  0.26949808  0.90750078     0.10200
S659        S  0.78644513  0.18713122  0.80498914    -0.33200
S660        S  0.70474057  0.30322033  0.94761003    -0.33200
H661        H  0.71602875  0.27607135  0.98032098     0.28200
H662        H  0.82901290  0.19563610  0.81682672     0.28200
H663        H  0.74056699  0.16664025  0.87705661     0.18800
H664        H  0.74936992  0.32392564  0.87466742     0.18800
C665        C  0.45965307  0.15328835  0.65415176    -0.07100
C666        C  0.49211669  0.18420169  0.65364369    -0.18200
C667        C  0.52444347  0.18350380  0.62353067     0.10100
C668        C  0.52359662  0.15210683  0.59216007    -0.07000
C669        C  0.49015002  0.12211161  0.59218769    -0.18200
C670        C  0.45827997  0.12247717  0.62242316     0.10200
S671        S  0.56762877  0.22105777  0.62912686    -0.33200
S672        S  0.41622752  0.08318325  0.61815031    -0.33200
H673        H  0.38354371  0.10950847  0.63368820     0.28200
H674        H  0.59958235  0.19082712  0.62040338     0.28200
H675        H  0.49370112  0.20755977  0.67820710     0.18800
H676        H  0.48844019  0.09826860  0.56807289     0.18800
C677        C  0.52267095  0.16211956  0.90678080    -0.07100
C678        C  0.48604531  0.13643652  0.91067909    -0.18200
C679        C  0.45380595  0.13660913  0.88103027     0.10100
C680        C  0.45777693  0.16278039  0.84589167    -0.07000
C681        C  0.49307639  0.19040932  0.84276251    -0.18200
C682        C  0.52587431  0.18997239  0.87254906     0.10200
S683        S  0.40836178  0.10240713  0.88995580    -0.33200
S684        S  0.57217720  0.22292956  0.86327938    -0.33200
H685        H  0.60212514  0.19186134  0.87523680     0.28200
H686        H  0.37843167  0.12884669  0.87009651     0.28200
H687        H  0.48244748  0.11569132  0.93719554     0.18800
H688        H  0.49649914  0.21037847  0.81569266     0.18800
C689        C  0.02832152  0.32737274  0.59246873    -0.07100
C690        C  0.99342397  0.29916858  0.59096162    -0.18200
C691        C  0.96140335  0.29999121  0.62150244     0.10100
C692        C  0.96503864  0.32865006  0.65503078    -0.07000
C693        C  0.00105430  0.35544959  0.65707498    -0.18200
C694        C  0.03252843  0.35512892  0.62646693     0.10200
S695        S  0.91502660  0.26684289  0.61384691    -0.33200
S696        S  0.07696096  0.39154045  0.63253321    -0.33200
H697        H  0.10686228  0.36831414  0.60926139     0.28200
H698        H  0.88589509  0.29822856  0.62680273     0.28200
H699        H  0.98969580  0.27832053  0.56455584     0.18800
H700        H  0.00472529  0.37714645  0.68284856     0.18800
C701        C  0.96682006  0.31249941  0.83850257    -0.07100
C702        C  0.00937672  0.32427729  0.83040974    -0.18200
C703        C  0.04024527  0.32408882  0.86155390     0.10100
C704        C  0.02812350  0.31331675  0.90214981    -0.07000
C705        C  0.98617123  0.29942850  0.91003603    -0.18200
C706        C  0.95554731  0.29815387  0.87840551     0.10200
S707        S  0.09399372  0.33995841  0.84784286    -0.33200
S708        S  0.90171873  0.28257581  0.89169670    -0.33200
H709        H  0.89896168  0.25173567  0.86036694     0.28200
H710        H  0.11503340  0.31960087  0.88064641     0.28200
H711        H  0.01836256  0.33487447  0.79974539     0.18800
H712        H  0.97677150  0.29130589  0.94127546     0.18800
C713        C  0.22387560  0.27332654  0.59276090    -0.07100
C714        C  0.26872679  0.26979428  0.59116738    -0.18200
C715        C  0.29115769  0.24515442  0.62002562     0.10100
C716        C  0.26851601  0.22471012  0.65228749    -0.07000
C717        C  0.22367851  0.22835324  0.65375824    -0.18200
C718        C  0.20126892  0.25251339  0.62473500     0.10200
S719        S  0.34804686  0.23877985  0.61230372    -0.33200
S720        S  0.14401688  0.25687556  0.63131056    -0.33200
H721        H  0.14151892  0.29922759  0.61766089     0.28200
H722        H  0.34913577  0.19593710  0.62488974     0.28200
H723        H  0.28624226  0.28477553  0.56616927     0.18800
H724        H  0.20592320  0.21326128  0.67853684     0.18800
C725        C  0.26527016  0.22914361  0.83809423    -0.07100
C726        C  0.29001820  0.24697125  0.86997278    -0.18200
C727        C  0.27079799  0.26759287  0.90361414     0.10100
C728        C  0.22565779  0.27148692  0.90527918    -0.07000
C729        C  0.20102860  0.25423194  0.87308961    -0.18200
C730        C  0.22018614  0.23382748  0.83943437     0.10200
S731        S  0.30552555  0.28570534  0.94449776    -0.33200
S732        S  0.18526019  0.21636655  0.79840844    -0.33200
H733        H  0.21379679  0.22688892  0.76631938     0.28200
H734        H  0.27295122  0.26764307  0.48063181     0.28200
H735        H  0.32454998  0.24335488  0.86952563     0.18800
H736        H  0.16647647  0.25753173  0.87364588     0.18800
C737        C  0.67282664  0.95522570  0.65235213    -0.07100
C738        C  0.69740883  0.99232703  0.65689653    -0.18200
C739        C  0.69749912  0.02387886  0.62626582     0.10100
C740        C  0.67331885  0.01768467  0.58975736    -0.07000
C741        C  0.65158607  0.97884462  0.58422578    -0.18200
C742        C  0.65131134  0.94763994  0.61481819     0.10200
S743        S  0.72574391  0.07253598  0.63748069    -0.33200
S744        S  0.62254254  0.89893277  0.60428556    -0.33200
H745        H  0.64772598  0.87288340  0.62990321     0.28200
H746        H  0.69168252  0.09911611  0.62552419     0.28200
H747        H  0.71403358  0.99818918  0.68571505     0.18800
H748        H  0.63398977  0.97290099  0.55595737     0.18800
C749        C  0.67774654  0.96677373  0.83959184    -0.07100
C750        C  0.66229254  0.00797628  0.83161384    -0.18200
C751        C  0.66205587  0.03928190  0.86217039     0.10100
C752        C  0.67769291  0.02953685  0.90182407    -0.07000
C753        C  0.69576111  0.98944219  0.90931989    -0.18200
C754        C  0.69537953  0.95772152  0.87885276     0.10200
S755        S  0.63961241  0.09052825  0.84931486    -0.33200
S756        S  0.71350020  0.90543818  0.89345826    -0.33200
H757        H  0.67847689  0.88394718  0.87567406     0.28200
H758        H  0.66352319  0.11409067  0.87818359     0.28200
H759        H  0.64909134  0.01555237  0.80155073     0.18800
H760        H  0.70717065  0.98174458  0.94002493     0.18800
C761        C  0.82129188  0.46872925  0.66434376    -0.07100
C762        C  0.84256826  0.50774086  0.66971664    -0.18200
C763        C  0.84250869  0.53873903  0.63896273     0.10100
C764        C  0.82057584  0.53108111  0.60167382    -0.07000
C765        C  0.79715334  0.49327799  0.59691431    -0.18200
C766        C  0.79790477  0.46166458  0.62749102     0.07000
S767        S  0.87198790  0.58705615  0.64881933    -0.33200
S768        S  0.77213096  0.41176140  0.61571197    -0.33200
H769        H  0.80633620  0.38649983  0.62982253     0.28200
H770        H  0.84660142  0.61347321  0.62375760     0.28200
H771        H  0.86013378  0.51393782  0.69794971     0.18800
H772        H  0.78083652  0.48702645  0.56801231     0.18800
C773        C  0.82700427  0.52046441  0.91456357    -0.07100
C774        C  0.84960013  0.48217728  0.91967834    -0.18200
C775        C  0.84966404  0.45082064  0.88911220     0.10100
C776        C  0.82726002  0.45783661  0.85187929    -0.07000
C777        C  0.80331194  0.49525753  0.84717368    -0.18200
C778        C  0.80286671  0.52653962  0.87804678     0.10200
S779        S  0.87913810  0.40260259  0.89943289    -0.33200
S780        S  0.77482011  0.57524213  0.86717425    -0.33200
H781        H  0.74509766  0.56897870  0.89928805     0.28200
H782        H  0.85286615  0.37582148  0.87551595     0.28200
H783        H  0.86760525  0.47663410  0.94777695     0.18800
H784        H  0.78650917  0.50108016  0.81844912     0.18800
C785        C  0.76481931  0.71859150  0.90749933    -0.07100
C786        C  0.78694957  0.72950996  0.87134456    -0.18200
C787        C  0.76640459  0.75052288  0.83865369     0.10100
C788        C  0.72259159  0.76145261  0.84233014    -0.07000
C789        C  0.70035703  0.75035153  0.87843999    -0.18200
C790        C  0.72094808  0.72923654  0.91093187     0.10200
S791        S  0.79595193  0.76133329  0.79173135    -0.33200
S792        S  0.69086015  0.72015175  0.95753486    -0.33200
H793        H  0.69224676  0.67565262  0.95335483     0.28200
H794        H  0.83571019  0.74540344  0.80505656     0.28200
H795        H  0.82032980  0.72097047  0.86855545     0.18800
H796        H  0.66693950  0.75911739  0.88179302     0.18800
C797        C  0.76465510  0.72233941  0.59261153    -0.07100
C798        C  0.71965281  0.72242422  0.59403225    -0.18200
C799        C  0.69748084  0.74490242  0.62464937     0.10100
C800        C  0.72067990  0.76688059  0.65551776    -0.07000
C801        C  0.76560566  0.76698218  0.65393112    -0.18200
C802        C  0.78774923  0.74472467  0.62331179     0.10200
S803        S  0.63982017  0.74636870  0.62109973    -0.33200
S804        S  0.84539486  0.74415980  0.62682276    -0.33200
H805        H  0.84911503  0.70123069  0.61524729     0.28200
H806        H  0.63619713  0.78911944  0.63344004     0.28200
H807        H  0.70157894  0.70600906  0.57030588     0.18800
H808        H  0.78373432  0.78337786  0.67764239     0.18800
C809        C  0.31306536  0.96080845  0.59606057    -0.07100
C810        C  0.29537504  0.00116997  0.58917943    -0.18200
C811        C  0.29492014  0.03195285  0.62044375     0.10100
C812        C  0.31228531  0.02207260  0.65953407    -0.07000
C813        C  0.32794763  0.98088154  0.66682913    -0.18200
C814        C  0.32828640  0.95017070  0.63569760     0.10200
S815        S  0.27725256  0.08466186  0.60709344    -0.33200
S816        S  0.34991179  0.89845758  0.64804436    -0.33200
H817        H  0.32671808  0.87570120  0.61806540     0.28200
H818        H  0.24553881  0.08566793  0.63792316     0.28200
H819        H  0.28397440  0.00957954  0.55873796     0.18800
H820        H  0.34107219  0.97288244  0.69681633     0.18800
C821        C  0.30705611  0.96996931  0.90851089    -0.07100
C822        C  0.29550472  0.95701415  0.86861764    -0.18200
C823        C  0.29421800  0.98615213  0.83596779     0.10100
C824        C  0.30434129  0.02921677  0.84355120    -0.07000
C825        C  0.31257500  0.04269589  0.88388511    -0.18200
C826        C  0.31441484  0.01360470  0.91635904     0.10200
S827        S  0.28311990  0.96583500  0.78496542    -0.33200
S828        S  0.32829671  0.03390723  0.96668775    -0.33200
H829        H  0.30591789  0.00249016  0.98870908     0.28200
H830        H  0.26711347  0.00394879  0.76847431     0.28200
H831        H  0.29022750  0.92371011  0.86220296     0.18800
H832        H  0.31951797  0.07588620  0.88980397     0.18800
C833        C  0.46313020  0.83484434  0.59495598    -0.07100
C834        C  0.47289007  0.79529424  0.61324423    -0.18200
C835        C  0.50248955  0.79202979  0.64591189     0.10100
C836        C  0.52400615  0.82890136  0.65999758    -0.07000
C837        C  0.51467794  0.86796309  0.64121009    -0.18200
C838        C  0.48431853  0.87171604  0.61014777     0.10200
S839        S  0.50985065  0.74052887  0.66913360    -0.33200
S840        S  0.47380184  0.92546365  0.59332631    -0.33200
H841        H  0.42948815  0.92209667  0.60037137     0.28200
H842        H  0.51183434  0.75595836  0.70980796     0.28200
H843        H  0.45697837  0.76673269  0.60247407     0.18800
H844        H  0.53081940  0.89666663  0.65140236     0.18800
C845        C  0.46864866  0.83384514  0.91150208    -0.07100
C846        C  0.46396919  0.80487323  0.87886736    -0.18200
C847        C  0.49397356  0.80344159  0.84664475     0.10100
C848        C  0.53001773  0.83082090  0.84764844    -0.07000
C849        C  0.53583098  0.85773458  0.88172369    -0.18200
C850        C  0.50602064  0.85915163  0.91373675     0.10200
S851        S  0.48241660  0.76893971  0.80365989    -0.33200
S852        S  0.51786511  0.89351304  0.95689757    -0.33200
H853        H  0.49941699  0.86668977  0.98679817     0.28200
H854        H  0.49277480  0.79943824  0.77346212     0.28200
H855        H  0.43550762  0.78512659  0.87717560     0.18800
H856        H  0.56383485  0.87815336  0.88330522     0.18800
C857        C  0.15657345  0.53501310  0.64835962    -0.07100
C858        C  0.18204027  0.49857279  0.65307540    -0.18200
C859        C  0.18393825  0.46747835  0.62216501     0.10100
C860        C  0.16000996  0.47288023  0.58554636    -0.07000
C861        C  0.13571377  0.51014447  0.58039082    -0.18200
C862        C  0.13369920  0.54120141  0.61131128     0.10200
S863        S  0.21362061  0.41974721  0.63294951    -0.33200
S864        S  0.10245448  0.58887107  0.60291505    -0.33200
H865        H  0.08573398  0.57750487  0.56412613     0.28200
H866        H  0.24227009  0.42624857  0.60000024     0.28200
H867        H  0.19913567  0.49342734  0.68176121     0.18800
H868        H  0.11778839  0.51462055  0.55210712     0.18800
C869        C  0.16645643  0.51894340  0.83120507    -0.07100
C870        C  0.19211595  0.52606031  0.86622786    -0.18200
C871        C  0.19148985  0.49781361  0.89976750     0.10100
C872        C  0.16470689  0.46159159  0.89831400    -0.07000
C873        C  0.14117072  0.45328197  0.86242999    -0.18200
C874        C  0.14289718  0.48051999  0.82849211     0.10200
S875        S  0.22305977  0.51141050  0.94447197    -0.33200
S876        S  0.11519585  0.46359155  0.78239175    -0.33200
H877        H  0.14525413  0.48144658  0.75494200     0.28200
H878        H  0.19287259  0.49745230  0.97376536     0.28200
H879        H  0.21085157  0.55493442  0.86859723     0.18800
H880        H  0.12133202  0.42514508  0.86077787     0.18800
C881        C  0.01976613  0.67955938  0.66174937    -0.07100
C882        C  0.03416317  0.68505571  0.62102876    -0.18200
C883        C  0.00548338  0.68390636  0.58768599     0.10100
C884        C  0.96128885  0.67769497  0.59516799    -0.07000
C885        C  0.94670011  0.67485102  0.63599551    -0.18200
C886        C  0.97530570  0.67574146  0.66927339     0.10200
S887        S  0.02761971  0.68722520  0.53630291    -0.33200
S888        S  0.95325727  0.67055432  0.72053686    -0.33200
H889        H  0.98604807  0.69326844  0.74059330     0.28200
H890        H  0.99070015  0.70329462  0.51704024     0.28200
H891        H  0.06823634  0.68771055  0.61494973     0.18800
H892        H  0.91291976  0.67023358  0.64201740     0.18800
C893        C  0.03181299  0.66642004  0.85052714    -0.07100
C894        C  0.99489710  0.69162670  0.84751093    -0.18200
C895        C  0.96325207  0.69056823  0.87829345     0.10100
C896        C  0.96896684  0.66450982  0.91352718    -0.07000
C897        C  0.00730318  0.64143897  0.91748088    -0.18200
C898        C  0.03874459  0.64237639  0.88673858     0.10200
S899        S  0.91484596  0.71997257  0.86878534    -0.33200
S900        S  0.08707752  0.61214958  0.89553325    -0.33200
H901        H  0.11409427  0.63862733  0.87203226     0.28200
H902        H  0.88775533  0.68665772  0.88153805     0.28200
H903        H  0.98925766  0.70996618  0.81972055     0.18800
H904        H  0.01280330  0.62226420  0.94477562     0.18800
C905        C  0.26606990  0.76685633  0.59066814    -0.07100
C906        C  0.24596935  0.79044609  0.62195989    -0.18200
C907        C  0.22453484  0.77058115  0.65466543     0.10100
C908        C  0.22303818  0.72556715  0.65692596    -0.07000
C909        C  0.24387024  0.70196597  0.62593908    -0.18200
C910        C  0.26463127  0.72188086  0.59276088     0.10200
S911        S  0.20187540  0.80473803  0.69353847    -0.33200
S912        S  0.28654033  0.68786617  0.55322328    -0.33200
H913        H  0.27293603  0.71400885  0.01959607     0.28200
H914        H  0.15963854  0.79627714  0.68062695     0.28200
H915        H  0.24730323  0.82490308  0.62122950     0.18800
H916        H  0.24287989  0.66751640  0.62676507     0.18800
C917        C  0.22443058  0.72083786  0.84290659    -0.07100
C918        C  0.22091682  0.76521695  0.84563973    -0.18200
C919        C  0.24408267  0.78848304  0.87483278     0.10100
C920        C  0.27084260  0.76720161  0.90343374    -0.07000
C921        C  0.27492269  0.72279171  0.90042934    -0.18200
C922        C  0.25184538  0.69944297  0.87086136     0.10200
S923        S  0.23987332  0.84551725  0.87215481    -0.33200
S924        S  0.25674061  0.64238775  0.87221687    -0.33200
H925        H  0.21299094  0.63485387  0.86459581     0.28200
H926        H  0.28351597  0.85215337  0.88094809     0.28200
H927        H  0.20089770  0.78223982  0.82386907     0.18800
H928        H  0.29486323  0.70591378  0.92235421     0.18800
loop_ 
_geom_bond_atom_site_label_1 
_geom_bond_atom_site_label_2 
_geom_bond_distance 
_geom_bond_site_symmetry_2 
_ccdc_geom_bond_type 
Fe1          O17   2.068       .  S
Fe1           O7   2.043       .  S
Fe1          O14   2.042       .  S
Fe1           O6   2.074       .  S
Fe1          O12   1.955       .  S
Fe2           O5   2.084       .  S
Fe2           O9   2.062       .  S
Fe2          O13   2.096       .  S
Fe2          O18   2.062       .  S
Fe2          O12   1.961       .  S
Fe3          O21   2.064       .  S
Fe3           O8   2.071       .  S
Fe3          O15   2.093       .  S
Fe3           O4   2.069       .  S
Fe3          O12   1.956       .  S
O4           C11   1.268       .  A
O5           C19   1.273       .  A
O6           C11   1.268       .  A
O7           C10   1.267       .  A
O8           C20   1.269       .  A
O9           C22   1.266       .  A
C10          O15   1.274       .  A
C10         C429   1.472       .  S
C11         C417   1.478       .  S
O13          C16   1.276       .  A
O14          C16   1.268       .  A
C16         C393   1.479       .  S
O17          C22   1.267       .  A
O18          C20   1.270       .  A
C19          O21   1.272       .  A
C19         C453   1.487       .  S
C20         C444   1.490       .  S
C22         C405   1.471       .  S
Fe23         O39   2.054   1_556  S
Fe23         O29   2.043   1_556  S
Fe23        O500   2.052       .  S
Fe23        O492   2.049       .  S
Fe23        O498   1.967       .  S
Fe24         O35   2.071       .  S
Fe24         O40   2.069       .  S
Fe24        O491   2.063       .  S
Fe24        O495   2.084       .  S
Fe24         O34   1.970       .  S
Fe25         O30   2.078       .  S
Fe25         O26   2.082       .  S
Fe25        O507   2.072       .  S
Fe25        O501   2.083       .  S
Fe25         O34   1.976       .  S
O26          C33   1.272       .  A
O27        Fe488   2.058   1_554  S
O27          C41   1.268       .  A
O28        Fe487   2.045       .  S
O28          C33   1.268       .  A
O29          C32   1.262       .  A
O30          C42   1.273       .  A
O31        Fe488   2.081   1_554  S
O31          C44   1.270       .  A
C32          O37   1.272       .  A
C32         C369   1.493       .  S
C33         C381   1.470       .  S
O34        Fe487   1.962       .  S
O35          C38   1.268       .  A
O36        Fe487   2.061       .  S
O36          C38   1.266       .  A
O37        Fe489   2.087   1_554  S
C38         C357   1.475       .  S
O39          C44   1.267       .  A
O40          C42   1.271       .  A
C41          O43   1.267       .  A
C41         C441   1.481       .  S
C42         C456   1.489       .  S
O43        Fe489   2.065   1_554  S
C44         C345   1.470       .  S
Fe45         O61   2.062       .  S
Fe45         O51   2.052       .  S
Fe45        O522   2.048       .  S
Fe45        O514   2.060       .  S
Fe45        O520   1.974       .  S
Fe46         O49   2.067       .  S
Fe46         O53   2.075       .  S
Fe46        O521   2.073       .  S
Fe46        O526   2.067       .  S
Fe46        O520   1.991       .  S
Fe47         O52   2.069       .  S
Fe47         O48   2.077       .  S
Fe47        O529   2.073   1_554  S
Fe47        O523   2.079   1_554  S
Fe47         O56   1.982       .  S
O48          C55   1.269       .  A
O49          C63   1.267       .  A
O50        Fe509   2.059       .  S
O50          C55   1.266       .  A
O51          C54   1.267       .  A
O52          C64   1.271       .  A
O53          C66   1.270       .  A
C54          O59   1.271       .  A
C54         C432   1.480       .  S
C55         C420   1.473       .  S
O56        Fe509   1.974       .  S
O56        Fe510   1.988       .  S
O57        Fe510   2.074       .  S
O57          C60   1.267       .  A
O58        Fe509   2.053       .  S
O58          C60   1.266       .  A
O59        Fe511   2.077       .  S
C60         C300   1.471       .  S
O61          C66   1.271       .  A
O62        Fe510   2.066       .  S
O62          C64   1.271       .  A
C63          O65   1.270       .  A
C63         C321   1.483       .  S
C64         C333   1.479       .  S
O65        Fe511   2.072       .  S
C66         C309   1.491       .  S
Fe67         O83   2.046       .  S
Fe67         O73   2.051       .  S
Fe67         O80   2.057       .  S
Fe67         O72   2.043       .  S
Fe67         O78   1.957       .  S
Fe68         O71   2.058       .  S
Fe68         O75   2.091       .  S
Fe68         O79   2.071       .  S
Fe68         O84   2.071       .  S
Fe68         O78   1.971       .  S
Fe69         O87   2.071       .  S
Fe69         O74   2.072       .  S
Fe69         O81   2.075       .  S
Fe69         O70   2.088       .  S
Fe69         O78   1.975       .  S
O70          C77   1.274       .  A
O71          C85   1.269       .  A
O72          C77   1.268       .  A
O73          C76   1.266       .  A
O74          C86   1.272       .  A
O75          C88   1.273       .  A
C76          O81   1.267       .  A
C76         C372   1.490       .  S
C77         C384   1.474       .  S
O79          C82   1.268       .  A
O80          C82   1.266       .  A
C82         C285   1.478       .  S
O83          C88   1.268       .  A
O84          C86   1.271       .  A
C85          O87   1.270       .  A
C85         C336   1.477       .  S
C86         C324   1.485       .  S
C88         C273   1.473       .  S
Fe89        O105   2.058       .  S
Fe89         O95   2.048       .  S
Fe89        O566   2.045       .  S
Fe89        O558   2.061       .  S
Fe89        O564   1.974       .  S
Fe90        O101   2.076   1_556  S
Fe90        O106   2.077   1_556  S
Fe90        O557   2.076       .  S
Fe90        O561   2.080       .  S
Fe90        O100   1.987       .  S
Fe91         O96   2.058   1_556  S
Fe91         O92   2.077   1_556  S
Fe91        O573   2.065       .  S
Fe91        O567   2.066       .  S
Fe91        O100   1.985       .  S
O92          C99   1.271       .  A
O93        Fe554   2.074       .  S
O93         C107   1.272       .  A
O94        Fe553   2.054   1_554  S
O94          C99   1.268       .  A
O95          C98   1.264       .  A
O96         C108   1.267       .  A
O97        Fe554   2.069       .  S
O97         C110   1.268       .  A
C98         O103   1.265       .  A
C98         C240   1.465       .  S
C99         C225   1.472       .  S
O100       Fe553   1.974       .  S
O101        C104   1.269       .  A
O102       Fe553   2.052   1_554  S
O102        C104   1.267       .  A
O103       Fe555   2.067       .  S
C104        C396   1.487       .  S
O105        C110   1.267       .  A
O106        C108   1.270       .  A
C107        O109   1.272       .  A
C107        C264   1.481       .  S
C108        C249   1.485       .  S
O109       Fe555   2.068       .  S
C110        C408   1.468       .  S
Fe111       O127   2.049       .  S
Fe111       O117   2.052       .  S
Fe111       O124   2.050       .  S
Fe111       O116   2.050       .  S
Fe111       O122   1.976       .  S
Fe112       O115   2.072       .  S
Fe112       O119   2.079       .  S
Fe112       O123   2.076       .  S
Fe112       O128   2.073       .  S
Fe112       O122   1.990       .  S
Fe113       O131   2.067       .  S
Fe113       O118   2.066       .  S
Fe113       O125   2.076       .  S
Fe113       O114   2.075       .  S
Fe113       O122   1.982       .  S
O114        C121   1.269       .  A
O115        C129   1.271       .  A
O116        C121   1.265       .  A
O117        C120   1.266       .  A
O118        C130   1.270       .  A
O119        C132   1.269       .  A
C120        O125   1.269       .  A
C120        C360   1.468       .  S
C121        C348   1.476       .  S
O123        C126   1.270       .  A
O124        C126   1.267       .  A
C126        C201   1.475       .  S
O127        C132   1.266       .  A
O128        C130   1.270       .  A
C129        O131   1.270       .  A
C129        C261   1.482       .  S
C130        C252   1.487       .  S
C132        C216   1.478       .  S
Fe133       O149   2.042       .  S
Fe133       O139   2.051       .  S
Fe133       O610   2.054       .  S
Fe133       O602   2.049       .  S
Fe133       O608   1.967       .  S
Fe134       O145   2.081   1_556  S
Fe134       O150   2.069   1_556  S
Fe134       O601   2.071       .  S
Fe134       O605   2.077       .  S
Fe134       O144   1.987       .  S
Fe135       O140   2.061       .  S
Fe135       O136   2.075       .  S
Fe135       O617   2.061   1_554  S
Fe135       O611   2.076   1_554  S
Fe135       O144   1.983   1_554  S
O136        C143   1.269       .  A
O137       Fe598   2.076       .  S
O137        C151   1.272       .  A
O138       Fe597   2.052   1_554  S
O138        C143   1.267       .  A
O139        C142   1.266       .  A
O140        C152   1.268       .  A
O141       Fe598   2.078       .  S
O141        C154   1.268       .  A
C142        O147   1.269       .  A
C142        C288   1.468       .  S
C143        C276   1.486       .  S
O144       Fe597   1.966       .  S
O145        C148   1.272       .  A
O146       Fe597   2.051   1_554  S
O146        C148   1.269       .  A
O147       Fe599   2.078       .  S
C148        C204   1.484       .  S
O149        C154   1.264       .  A
O150        C152   1.269       .  A
C151        O153   1.271       .  A
C151        C189   1.484       .  S
C152        C177   1.480       .  S
O153       Fe599   2.062       .  S
C154        C213   1.485       .  S
Fe155       O171   2.041       .  S
Fe155       O161   2.049       .  S
Fe155       O168   2.052       .  S
Fe155       O160   2.043       .  S
Fe155       O166   1.966       .  S
Fe156       O159   2.062       .  S
Fe156       O163   2.088       .  S
Fe156       O167   2.073       .  S
Fe156       O172   2.073       .  S
Fe156       O166   1.981       .  S
Fe157       O175   2.076       .  S
Fe157       O162   2.059       .  S
Fe157       O169   2.066       .  S
Fe157       O158   2.092       .  S
Fe157       O166   1.979       .  S
O158        C165   1.273       .  A
O159        C173   1.270       .  A
O160        C165   1.266       .  A
O161        C164   1.266       .  A
O162        C174   1.269       .  A
O163        C176   1.271       .  A
C164        O169   1.266       .  A
C164        C237   1.473       .  S
C165        C228   1.484       .  S
O167        C170   1.269       .  A
O168        C170   1.267       .  A
C170        C297   1.476       .  S
O171        C176   1.264       .  A
O172        C174   1.270       .  A
C173        O175   1.270       .  A
C173        C192   1.491       .  S
C174        C180   1.482       .  S
C176        C312   1.478       .  S
C177        C178   1.403       .  A
C177        C182   1.414       .  A
C178        C179   1.401       .  A
C178        H187   1.081       .  S
C179        C180   1.416       .  A
C179        S183   1.803       .  S
C180        C181   1.403       .  A
C181        C182   1.397       .  A
C181        H188   1.081       .  S
C182        S184   1.805       .  S
S183        H186   1.408       .  S
S184        H185   1.406       .  S
C189        C190   1.405       .  A
C189        C194   1.415       .  A
C190        C191   1.399       .  A
C190        H199   1.084       .  S
C191        C192   1.417       .  A
C191        S195   1.800       .  S
C192        C193   1.408       .  A
C193        C194   1.401       .  A
C193        H200   1.084       .  S
C194        S196   1.804       .  S
S195        H198   1.408       .  S
S196        H197   1.405       .  S
C201        C202   1.403       .  A
C201        C206   1.413       .  A
C202        C203   1.403       .  A
C202        H211   1.084       .  S
C203        C204   1.417       .  A
C203        S207   1.799       .  S
C204        C205   1.405       .  A
C205        C206   1.395       .  A
C205        H212   1.084       .  S
C206        S208   1.806       .  S
S207        H210   1.407       .  S
S208        H209   1.407       .  S
C213        C214   1.405       .  A
C213        C218   1.417       .  A
C214        C215   1.391       .  A
C214        H223   1.084       .  S
C215        C216   1.411       .  A
C215        S219   1.803       .  S
C216        C217   1.406       .  A
C217        C218   1.408       .  A
C217        H224   1.084       .  S
C218        S220   1.801       .  S
S219        H222   1.407       .  S
S220        H221   1.407       .  S
C225        C226   1.404   1_455  A
C225        C230   1.411       .  A
C226        C227   1.405       .  A
C226        H235   1.084       .  S
C227        C228   1.415       .  A
C227        S231   1.799       .  S
C228        C229   1.406   1_655  A
C229        C230   1.394       .  A
C229        H236   1.084       .  S
C230        S232   1.808       .  S
S231        H234   1.407       .  S
S232        H233   1.405       .  S
C237        C238   1.403   1_655  A
C237        C242   1.414       .  A
C238        C239   1.392       .  A
C238        H247   1.084       .  S
C239        C240   1.408       .  A
C239        S243   1.803       .  S
C240        C241   1.403   1_455  A
C241        C242   1.403       .  A
C241        H248   1.084       .  S
C242        S244   1.800       .  S
S243        H246   1.406       .  S
S244        H245   1.406       .  S
C249        C250   1.406       .  A
C249        C254   1.416       .  A
C250        C251   1.404       .  A
C250        H259   1.084       .  S
C251        C252   1.416       .  A
C251        S255   1.803       .  S
C252        C253   1.405       .  A
C253        C254   1.399       .  A
C253        H260   1.084       .  S
C254        S256   1.804       .  S
S255        H258   1.408       .  S
S256        H257   1.406       .  S
C261        C262   1.405       .  A
C261        C266   1.415       .  A
C262        C263   1.402       .  A
C262        H271   1.084       .  S
C263        C264   1.415       .  A
C263        S267   1.804       .  S
C264        C265   1.404       .  A
C265        C266   1.400       .  A
C265        H272   1.084       .  S
C266        S268   1.804       .  S
S267        H734   1.407       .  S
S268        H269   1.407       .  S
H270        S731   1.407       .  S
C273        C274   1.404       .  A
C273        C278   1.410       .  A
C274        C275   1.406   1_565  A
C274        H283   1.084   1_565  S
C275        C276   1.418       .  A
C275        S279   1.802       .  S
C276        C277   1.407   1_545  A
C277        C278   1.394       .  A
C277        H284   1.084       .  S
C278        S280   1.807       .  S
S279        H282   1.407       .  S
S280        H281   1.407       .  S
C285        C286   1.405   1_565  A
C285        C290   1.415       .  A
C286        C287   1.397       .  A
C286        H295   1.084       .  S
C287        C288   1.408       .  A
C287        S291   1.806       .  S
C288        C289   1.403   1_545  A
C289        C290   1.403       .  A
C289        H296   1.084       .  S
C290        S292   1.803       .  S
S291        H294   1.406       .  S
S292        H293   1.407       .  S
C297        C298   1.404       .  A
C297        C302   1.415       .  A
C298        C299   1.394       .  A
C298        H307   1.084       .  S
C299        C300   1.409       .  A
C299        S303   1.803       .  S
C300        C301   1.404       .  A
C301        C302   1.405       .  A
C301        H308   1.084       .  S
C302        S304   1.804       .  S
S303        H306   1.406       .  S
S304        H305   1.407       .  S
C309        C310   1.407       .  A
C309        C314   1.419       .  A
C310        C311   1.396       .  A
C310        H319   1.084       .  S
C311        C312   1.413       .  A
C311        S315   1.807       .  S
C312        C313   1.404       .  A
C313        C314   1.405       .  A
C313        H320   1.084       .  S
C314        S316   1.799       .  S
S315        H318   1.407       .  S
S316        H317   1.407       .  S
C321        C322   1.402       .  A
C321        C326   1.415       .  A
C322        C323   1.403       .  A
C322        H331   1.080       .  S
C323        C324   1.415       .  A
C323        S327   1.809       .  S
C324        C325   1.405       .  A
C325        C326   1.402       .  A
C325        H332   1.084       .  S
C326        S328   1.800       .  S
S327        H330   1.406       .  S
S328        H329   1.407       .  S
C333        C334   1.405       .  A
C333        C338   1.414       .  A
C334        C335   1.401       .  A
C334        H343   1.084       .  S
C335        C336   1.414       .  A
C335        S339   1.804       .  S
C336        C337   1.403       .  A
C337        C338   1.397       .  A
C337        H344   1.084       .  S
C338        S340   1.803       .  S
S339        H342   1.407       .  S
S340        H341   1.406       .  S
C345        C346   1.403   1_565  A
C345        C350   1.410       .  A
C346        C347   1.402       .  A
C346        H355   1.081       .  S
C347        C348   1.412       .  A
C347        S351   1.800       .  S
C348        C349   1.405   1_545  A
C349        C350   1.398       .  A
C349        H356   1.084       .  S
C350        S352   1.806       .  S
S351        H354   1.406       .  S
S352        H353   1.406       .  S
C357        C358   1.402       .  A
C357        C362   1.415   1_565  A
C358        C359   1.400       .  A
C358        H367   1.081       .  S
C359        C360   1.411   1_565  A
C359        S363   1.804       .  S
C360        C361   1.399       .  A
C361        C362   1.399       .  A
C361        H368   1.083       .  S
C362        S364   1.803       .  S
S363        H366   1.405   1_565  S
S364        H365   1.404       .  S
C369        C370   1.409       .  A
C369        C374   1.422       .  A
C370        C371   1.408       .  A
C370        H379   1.083       .  S
C371        C372   1.417       .  A
C371        S375   1.800       .  S
C372        C373   1.403       .  A
C373        C374   1.390       .  A
C373        H380   1.084       .  S
C374        S376   1.806       .  S
S375        H378   1.407       .  S
S376        H377   1.403       .  S
C381        C382   1.402       .  A
C381        C386   1.412       .  A
C382        C383   1.402       .  A
C382        H391   1.084       .  S
C383        C384   1.415       .  A
C383        S387   1.803       .  S
C384        C385   1.402       .  A
C385        C386   1.394       .  A
C385        H392   1.085       .  S
C386        S388   1.805       .  S
S387        H390   1.407       .  S
S388        H389   1.406       .  S
C393        C394   1.403       .  A
C393        C398   1.413       .  A
C394        C395   1.401       .  A
C394        H403   1.084       .  S
C395        C396   1.415       .  A
C395        S399   1.799       .  S
C396        C397   1.407       .  A
C397        C398   1.401       .  A
C397        H404   1.083       .  S
C398        S400   1.811       .  S
S399        H402   1.407       .  S
S400        H401   1.407       .  S
C405        C406   1.403       .  A
C405        C410   1.413       .  A
C406        C407   1.400       .  A
C406        H415   1.083       .  S
C407        C408   1.412       .  A
C407        S411   1.805       .  S
C408        C409   1.400       .  A
C409        C410   1.398       .  A
C409        H416   1.082       .  S
C410        S412   1.805       .  S
S411        H414   1.404       .  S
S412        H413   1.406       .  S
C417        C418   1.404       .  A
C417        C422   1.414   1_455  A
C418        C419   1.402       .  A
C418        H427   1.084       .  S
C419        C420   1.413   1_455  A
C419        S423   1.805       .  S
C420        C421   1.401       .  A
C421        C422   1.400       .  A
C421        H428   1.081       .  S
C422        S424   1.804       .  S
S423        H426   1.405   1_455  S
S424        H425   1.405       .  S
C429        C430   1.403   1_455  A
C429        C434   1.411       .  A
C430        C431   1.402       .  A
C430        H439   1.083       .  S
C431        C432   1.414       .  A
C431        S435   1.799       .  S
C432        C433   1.405   1_655  A
C433        C434   1.396       .  A
C433        H440   1.084       .  S
C434        S436   1.806       .  S
S435        H438   1.407       .  S
S436        H437   1.407       .  S
C441        C442   1.402       .  A
C441        C446   1.415       .  A
C442        C443   1.397       .  A
C442        H451   1.084       .  S
C443        C444   1.419       .  A
C443        S447   1.800       .  S
C444        C445   1.408       .  A
C445        C446   1.400       .  A
C445        H452   1.084       .  S
C446        S448   1.804       .  S
S447        H450   1.408       .  S
S448        H913   1.408       .  S
H449        S912   1.408       .  S
C453        C454   1.403       .  A
C453        C458   1.418       .  A
C454        C455   1.397       .  A
C454        H463   1.084       .  S
C455        C456   1.416       .  A
C455        S459   1.801       .  S
C456        C457   1.406       .  A
C457        C458   1.405       .  A
C457        H464   1.084       .  S
C458        S460   1.801       .  S
S459        H462   1.406       .  S
S460        H461   1.405       .  S
Fe465       O481   2.057       .  S
Fe465       O471   2.045       .  S
Fe465       O478   2.048       .  S
Fe465       O470   2.070       .  S
Fe465       O476   1.957       .  S
Fe466       O469   2.081       .  S
Fe466       O473   2.068       .  S
Fe466       O477   2.088       .  S
Fe466       O482   2.066       .  S
Fe466       O476   1.970       .  S
Fe467       O485   2.062       .  S
Fe467       O472   2.073       .  S
Fe467       O479   2.097       .  S
Fe467       O468   2.072       .  S
Fe467       O476   1.962       .  S
O468        C475   1.267       .  A
O469        C483   1.273       .  A
O470        C475   1.267       .  A
O471        C474   1.267       .  A
O472        C484   1.270       .  A
O473        C486   1.267       .  A
C474        O479   1.275       .  A
C474        C893   1.476       .  S
C475        C881   1.478       .  S
O477        C480   1.275       .  A
O478        C480   1.269       .  A
C480        C857   1.474       .  S
O481        C486   1.266       .  A
O482        C484   1.270       .  A
C483        O485   1.271       .  A
C483        C917   1.486       .  S
C484        C908   1.492       .  S
C486        C869   1.483       .  S
Fe487       O503   2.048       .  S
Fe487       O493   2.046       .  S
Fe488       O499   2.071       .  S
Fe488       O504   2.065       .  S
Fe488       O498   1.979       .  S
Fe489       O494   2.082       .  S
Fe489       O490   2.077       .  S
Fe489       O498   1.982       .  S
O490        C497   1.270       .  A
O491        C505   1.269       .  A
O492        C497   1.268       .  A
O493        C496   1.262       .  A
O494        C506   1.274       .  A
O495        C508   1.271       .  A
C496        O501   1.271       .  A
C496        C833   1.493       .  S
C497        C845   1.473       .  S
O499        C502   1.267       .  A
O500        C502   1.265       .  A
C502        C821   1.472       .  S
O503        C508   1.267       .  A
O504        C506   1.271       .  A
C505        O507   1.269       .  A
C505        C905   1.486       .  S
C506        C920   1.488       .  S
C508        C809   1.468       .  S
Fe509       O525   2.064   1_554  S
Fe509       O515   2.059   1_554  S
Fe510       O513   2.065   1_554  S
Fe510       O517   2.069   1_554  S
Fe511       O516   2.065       .  S
Fe511       O512   2.081       .  S
Fe511       O520   1.982       .  S
O512        C519   1.270       .  A
O513        C527   1.267       .  A
O514        C519   1.266       .  A
O515        C518   1.269       .  A
O516        C528   1.270       .  A
O517        C530   1.269       .  A
C518        O523   1.271       .  A
C518        C896   1.486       .  S
C519        C884   1.475       .  S
O521        C524   1.267       .  A
O522        C524   1.264       .  A
C524        C764   1.470       .  S
O525        C530   1.270       .  A
O526        C528   1.271       .  A
C527        O529   1.269       .  A
C527        C785   1.482       .  S
C528        C797   1.480       .  S
C530        C773   1.484       .  S
Fe531       O547   2.047       .  S
Fe531       O537   2.043       .  S
Fe531       O544   2.053       .  S
Fe531       O536   2.042       .  S
Fe531       O542   1.953       .  S
Fe532       O535   2.057       .  S
Fe532       O539   2.085       .  S
Fe532       O543   2.072       .  S
Fe532       O548   2.068       .  S
Fe532       O542   1.970       .  S
Fe533       O551   2.074       .  S
Fe533       O538   2.073       .  S
Fe533       O545   2.079       .  S
Fe533       O534   2.090       .  S
Fe533       O542   1.972       .  S
O534        C541   1.275       .  A
O535        C549   1.269       .  A
O536        C541   1.269       .  A
O537        C540   1.264       .  A
O538        C550   1.272       .  A
O539        C552   1.272       .  A
C540        O545   1.267       .  A
C540        C836   1.485       .  S
C541        C848   1.476       .  S
O543        C546   1.268       .  A
O544        C546   1.265       .  A
C546        C749   1.480       .  S
O547        C552   1.268       .  A
O548        C550   1.270       .  A
C549        O551   1.272       .  A
C549        C800   1.478       .  S
C550        C788   1.482       .  S
C552        C737   1.471       .  S
Fe553       O569   2.051       .  S
Fe553       O559   2.052       .  S
Fe554       O565   2.080       .  S
Fe554       O570   2.065       .  S
Fe554       O564   1.985       .  S
Fe555       O560   2.060       .  S
Fe555       O556   2.074       .  S
Fe555       O564   1.985       .  S
O556        C563   1.270       .  A
O557        C571   1.272       .  A
O558        C563   1.269       .  A
O559        C562   1.264       .  A
O560        C572   1.267       .  A
O561        C574   1.271       .  A
C562        O567   1.265       .  A
C562        C704   1.466       .  S
C563        C689   1.473       .  S
O565        C568   1.271       .  A
O566        C568   1.266       .  A
C568        C860   1.479       .  S
O569        C574   1.267       .  A
O570        C572   1.268       .  A
C571        O573   1.271       .  A
C571        C728   1.483       .  S
C572        C713   1.478       .  S
C574        C872   1.474       .  S
Fe575       O591   2.050       .  S
Fe575       O581   2.049       .  S
Fe575       O588   2.051       .  S
Fe575       O580   2.048       .  S
Fe575       O586   1.974       .  S
Fe576       O579   2.074       .  S
Fe576       O583   2.076       .  S
Fe576       O587   2.075       .  S
Fe576       O592   2.068       .  S
Fe576       O586   1.989       .  S
Fe577       O595   2.067       .  S
Fe577       O582   2.058       .  S
Fe577       O589   2.069       .  S
Fe577       O578   2.073       .  S
Fe577       O586   1.983       .  S
O578        C585   1.269       .  A
O579        C593   1.272       .  A
O580        C585   1.266       .  A
O581        C584   1.265       .  A
O582        C594   1.267       .  A
O583        C596   1.268       .  A
C584        O589   1.267       .  A
C584        C824   1.464       .  S
C585        C812   1.475       .  S
O587        C590   1.270       .  A
O588        C590   1.267       .  A
C590        C665   1.475       .  S
O591        C596   1.266       .  A
O592        C594   1.268       .  A
C593        O595   1.271       .  A
C593        C725   1.484       .  S
C594        C716   1.481       .  S
C596        C680   1.476       .  S
Fe597       O613   2.045       .  S
Fe597       O603   2.050       .  S
Fe598       O609   2.082       .  S
Fe598       O614   2.069       .  S
Fe598       O608   1.987       .  S
Fe599       O604   2.064       .  S
Fe599       O600   2.074       .  S
Fe599       O608   1.983       .  S
O600        C607   1.269       .  A
O601        C615   1.271       .  A
O602        C607   1.266       .  A
O603        C606   1.266       .  A
O604        C616   1.269       .  A
O605        C618   1.268       .  A
C606        O611   1.268       .  A
C606        C752   1.468       .  S
C607        C740   1.483       .  S
O609        C612   1.273       .  A
O610        C612   1.270       .  A
C612        C668   1.486       .  S
O613        C618   1.265       .  A
O614        C616   1.268       .  A
C615        O617   1.270       .  A
C615        C653   1.481       .  S
C616        C641   1.478       .  S
C618        C677   1.482       .  S
Fe619       O635   2.046       .  S
Fe619       O625   2.057       .  S
Fe619       O632   2.061       .  S
Fe619       O624   2.046       .  S
Fe619       O630   1.962       .  S
Fe620       O623   2.058       .  S
Fe620       O627   2.087       .  S
Fe620       O631   2.065       .  S
Fe620       O636   2.080       .  S
Fe620       O630   1.977       .  S
Fe621       O639   2.077       .  S
Fe621       O626   2.053       .  S
Fe621       O633   2.063       .  S
Fe621       O622   2.095       .  S
Fe621       O630   1.970       .  S
O622        C629   1.274       .  A
O623        C637   1.270       .  A
O624        C629   1.268       .  A
O625        C628   1.266       .  A
O626        C638   1.268       .  A
O627        C640   1.271       .  A
C628        O633   1.266       .  A
C628        C701   1.473       .  S
C629        C692   1.485       .  S
O631        C634   1.269       .  A
O632        C634   1.269       .  A
C634        C761   1.480       .  S
O635        C640   1.265       .  A
O636        C638   1.271       .  A
C637        O639   1.272       .  A
C637        C656   1.488       .  S
C638        C644   1.480       .  S
C640        C776   1.475       .  S
C641        C642   1.404       .  A
C641        C646   1.413       .  A
C642        C643   1.403       .  A
C642        H651   1.080       .  S
C643        C644   1.415       .  A
C643        S647   1.803       .  S
C644        C645   1.402       .  A
C645        C646   1.396       .  A
C645        H652   1.080       .  S
C646        S648   1.805       .  S
S647        H650   1.408       .  S
S648        H649   1.405       .  S
C653        C654   1.403       .  A
C653        C658   1.415       .  A
C654        C655   1.398       .  A
C654        H663   1.084       .  S
C655        C656   1.417       .  A
C655        S659   1.799       .  S
C656        C657   1.408       .  A
C657        C658   1.400       .  A
C657        H664   1.084       .  S
C658        S660   1.804       .  S
S659        H662   1.408       .  S
S660        H661   1.406       .  S
C665        C666   1.403       .  A
C665        C670   1.413       .  A
C666        C667   1.403       .  A
C666        H675   1.084       .  S
C667        C668   1.417       .  A
C667        S671   1.799       .  S
C668        C669   1.406       .  A
C669        C670   1.395       .  A
C669        H676   1.084       .  S
C670        S672   1.806       .  S
S671        H674   1.407       .  S
S672        H673   1.407       .  S
C677        C678   1.404       .  A
C677        C682   1.416       .  A
C678        C679   1.391       .  A
C678        H687   1.084       .  S
C679        C680   1.410       .  A
C679        S683   1.802       .  S
C680        C681   1.405       .  A
C681        C682   1.407       .  A
C681        H688   1.084       .  S
C682        S684   1.802       .  S
S683        H686   1.407       .  S
S684        H685   1.407       .  S
C689        C690   1.404   1_455  A
C689        C694   1.411       .  A
C690        C691   1.406       .  A
C690        H699   1.084       .  S
C691        C692   1.416       .  A
C691        S695   1.799       .  S
C692        C693   1.405   1_655  A
C693        C694   1.395       .  A
C693        H700   1.084       .  S
C694        S696   1.807       .  S
S695        H698   1.406       .  S
S696        H697   1.405       .  S
C701        C702   1.403   1_655  A
C701        C706   1.413       .  A
C702        C703   1.395       .  A
C702        H711   1.084       .  S
C703        C704   1.409       .  A
C703        S707   1.804       .  S
C704        C705   1.403   1_455  A
C705        C706   1.402       .  A
C705        H712   1.084       .  S
C706        S708   1.801       .  S
S707        H710   1.404       .  S
S708        H709   1.406       .  S
C713        C714   1.405       .  A
C713        C718   1.413       .  A
C714        C715   1.402       .  A
C714        H723   1.084       .  S
C715        C716   1.415       .  A
C715        S719   1.804       .  S
C716        C717   1.405       .  A
C717        C718   1.397       .  A
C717        H724   1.084       .  S
C718        S720   1.804       .  S
S719        H722   1.408       .  S
S720        H721   1.405       .  S
C725        C726   1.406       .  A
C725        C730   1.415       .  A
C726        C727   1.403       .  A
C726        H735   1.084       .  S
C727        C728   1.415       .  A
C727        S731   1.803       .  S
C728        C729   1.404       .  A
C729        C730   1.399       .  A
C729        H736   1.083       .  S
C730        S732   1.804       .  S
S732        H733   1.407       .  S
C737        C738   1.403       .  A
C737        C742   1.409       .  A
C738        C739   1.403   1_565  A
C738        H747   1.084       .  S
C739        C740   1.416       .  A
C739        S743   1.801       .  S
C740        C741   1.407   1_545  A
C741        C742   1.395       .  A
C741        H748   1.084       .  S
C742        S744   1.806       .  S
S743        H746   1.407       .  S
S744        H745   1.407       .  S
C749        C750   1.407   1_565  A
C749        C754   1.415       .  A
C750        C751   1.396       .  A
C750        H759   1.084       .  S
C751        C752   1.408       .  A
C751        S755   1.806       .  S
C752        C753   1.403   1_545  A
C753        C754   1.403       .  A
C753        H760   1.084       .  S
C754        S756   1.802       .  S
S755        H758   1.407       .  S
S756        H757   1.408       .  S
C761        C762   1.405       .  A
C761        C766   1.417       .  A
C762        C763   1.394       .  A
C762        H771   1.084       .  S
C763        C764   1.409       .  A
C763        S767   1.803       .  S
C764        C765   1.403       .  A
C765        C766   1.403       .  A
C765        H772   1.084       .  S
C766        S768   1.803       .  S
S767        H770   1.407       .  S
S768        H769   1.408       .  S
C773        C774   1.406       .  A
C773        C778   1.416       .  A
C774        C775   1.397       .  A
C774        H783   1.084       .  S
C775        C776   1.412       .  A
C775        S779   1.806       .  S
C776        C777   1.403       .  A
C777        C778   1.403       .  A
C777        H784   1.084       .  S
C778        S780   1.800       .  S
S779        H782   1.407       .  S
S780        H781   1.407       .  S
C785        C786   1.402       .  A
C785        C790   1.414       .  A
C786        C787   1.404       .  A
C786        H795   1.080       .  S
C787        C788   1.415       .  A
C787        S791   1.809       .  S
C788        C789   1.403       .  A
C789        C790   1.401       .  A
C789        H796   1.084       .  S
C790        S792   1.800       .  S
S791        H794   1.407       .  S
S792        H793   1.406       .  S
C797        C798   1.405       .  A
C797        C802   1.415       .  A
C798        C799   1.401       .  A
C798        H807   1.084       .  S
C799        C800   1.414       .  A
C799        S803   1.803       .  S
C800        C801   1.403       .  A
C801        C802   1.397       .  A
C801        H808   1.084       .  S
C802        S804   1.802       .  S
S803        H806   1.407       .  S
S804        H805   1.406       .  S
C809        C810   1.402   1_565  A
C809        C814   1.410       .  A
C810        C811   1.401       .  A
C810        H819   1.081       .  S
C811        C812   1.412       .  A
C811        S815   1.800       .  S
C812        C813   1.405   1_545  A
C813        C814   1.396       .  A
C813        H820   1.084       .  S
C814        S816   1.806       .  S
S815        H818   1.406       .  S
S816        H817   1.406       .  S
C821        C822   1.402       .  A
C821        C826   1.414   1_565  A
C822        C823   1.400       .  A
C822        H831   1.080       .  S
C823        C824   1.411   1_565  A
C823        S827   1.805       .  S
C824        C825   1.397       .  A
C825        C826   1.395       .  A
C825        H832   1.083       .  S
C826        S828   1.804       .  S
S827        H830   1.405   1_565  S
S828        H829   1.403       .  S
C833        C834   1.411       .  A
C833        C838   1.422       .  A
C834        C835   1.409       .  A
C834        H843   1.083       .  S
C835        C836   1.414       .  A
C835        S839   1.800       .  S
C836        C837   1.402       .  A
C837        C838   1.387       .  A
C837        H844   1.084       .  S
C838        S840   1.806       .  S
S839        H842   1.405       .  S
S840        H841   1.405       .  S
C845        C846   1.403       .  A
C845        C850   1.413       .  A
C846        C847   1.402       .  A
C846        H855   1.084       .  S
C847        C848   1.416       .  A
C847        S851   1.801       .  S
C848        C849   1.402       .  A
C849        C850   1.393       .  A
C849        H856   1.085       .  S
C850        S852   1.805       .  S
S851        H854   1.407       .  S
S852        H853   1.407       .  S
C857        C858   1.404       .  A
C857        C862   1.410       .  A
C858        C859   1.401       .  A
C858        H867   1.084       .  S
C859        C860   1.412       .  A
C859        S863   1.799       .  S
C860        C861   1.406       .  A
C861        C862   1.400       .  A
C861        H868   1.083       .  S
C862        S864   1.810       .  S
S863        H866   1.407       .  S
S864        H865   1.407       .  S
C869        C870   1.407       .  A
C869        C874   1.416       .  A
C870        C871   1.403       .  A
C870        H879   1.082       .  S
C871        C872   1.412       .  A
C871        S875   1.803       .  S
C872        C873   1.400       .  A
C873        C874   1.395       .  A
C873        H880   1.080       .  S
C874        S876   1.806       .  S
S875        H878   1.406       .  S
S876        H877   1.408       .  S
C881        C882   1.404       .  A
C881        C886   1.413   1_455  A
C882        C883   1.403       .  A
C882        H891   1.084       .  S
C883        C884   1.413   1_455  A
C883        S887   1.805       .  S
C884        C885   1.401       .  A
C885        C886   1.400       .  A
C885        H892   1.081       .  S
C886        S888   1.804       .  S
S887        H890   1.405   1_455  S
S888        H889   1.406       .  S
C893        C894   1.402   1_455  A
C893        C898   1.412       .  A
C894        C895   1.403       .  A
C894        H903   1.084       .  S
C895        C896   1.416       .  A
C895        S899   1.799       .  S
C896        C897   1.406   1_655  A
C897        C898   1.398       .  A
C897        H904   1.084       .  S
C898        S900   1.806       .  S
S899        H902   1.407       .  S
S900        H901   1.407       .  S
C905        C906   1.404       .  A
C905        C910   1.416       .  A
C906        C907   1.399       .  A
C906        H915   1.084       .  S
C907        C908   1.418       .  A
C907        S911   1.800       .  S
C908        C909   1.408       .  A
C909        C910   1.402       .  A
C909        H916   1.084       .  S
C910        S912   1.803       .  S
S911        H914   1.408       .  S
C917        C918   1.402       .  A
C917        C922   1.417       .  A
C918        C919   1.397       .  A
C918        H927   1.084       .  S
C919        C920   1.416       .  A
C919        S923   1.800       .  S
C920        C921   1.406       .  A
C921        C922   1.405       .  A
C921        H928   1.084       .  S
C922        S924   1.801       .  S
S923        H926   1.407       .  S
S924        H925   1.407       .  S
