geometry optimzed in LAMMPS
_audit_creation_date              2020-11-30 
_audit_creation_method            'lammps2cif' 
_symmetry_space_group_name_H-M    'P1' 
_symmetry_Int_Tables_number       1 
_symmetry_cell_setting            triclinic 
loop_ 
_symmetry_equiv_pos_as_xyz 
  x,y,z 
_cell_length_a                    21.06011602 
_cell_length_b                    21.079195158665254 
_cell_length_c                    21.0390453727121 
_cell_angle_alpha                 90.07409457100513 
_cell_angle_beta                  90.79069466459686 
_cell_angle_gamma                 89.87605861075832 
loop_ 
_atom_site_label 
_atom_site_type_symbol 
_atom_site_fract_x 
_atom_site_fract_y 
_atom_site_fract_z 
_atom_site_charge 
O1          O  0.78524201  0.59861436  0.71132262    -0.77400
C2          C  0.74847438  0.74964164  0.55574337     0.83600
O3          O  0.89643917  0.81400894  0.75027159    -0.78500
O4          O  0.72479134  0.91628307  0.69962927    -0.80000
O5          O  0.58380440  0.73120669  0.76809646    -0.79800
O6          O  0.70389605  0.61932272  0.77343768    -0.78400
Zn7        Zn  0.79736041  0.69765582  0.68885292     1.55700
O8          O  0.60488663  0.80343960  0.69406153    -0.79800
Cd9        Cd  0.68309657  0.71256139  0.78973298     1.59700
Cd10       Cd  0.80208769  0.81360227  0.79179306     1.59600
O11         O  0.70344117  0.72908868  0.88724715    -0.79800
O12         O  0.74542211  0.76017328  0.73549395    -1.90300
Cd13       Cd  0.70007751  0.82020574  0.67434013     1.59900
O14         O  0.79661682  0.77757397  0.88836920    -0.79800
O15         O  0.72084558  0.80091332  0.57356385    -0.78400
C16         C  0.92687095  0.76594360  0.72790067     0.84100
C17         C  0.74125829  0.57907625  0.74763797     0.83800
O18         O  0.77014053  0.71159165  0.59844005    -0.77400
C19         C  0.56457445  0.77183921  0.72691238     0.84600
O20         O  0.89415864  0.72105559  0.70161329    -0.77500
C21         C  0.74922458  0.75468275  0.91906711     0.84700
C22         C  0.75166205  0.94428648  0.74759528     0.85000
O23         O  0.76972632  0.91010385  0.79455906    -0.79900
C24         C  0.77510894  0.26977846  0.50964305    -0.01400
C25         C  0.21959794  0.26093861  0.49881137    -0.01400
C26         C  0.77920957  0.73678047  0.48894938    -0.01400
C27         C  0.21969500  0.72565993  0.49218285    -0.01400
C28         C  0.26976068  0.50690819  0.77239501    -0.01400
C29         C  0.27955263  0.47905402  0.22967040    -0.01400
C30         C  0.72758872  0.50997588  0.76897115    -0.01400
C31         C  0.72520515  0.48886756  0.23247355    -0.01400
C32         C  0.49982064  0.76867385  0.24768492    -0.01400
C33         C  0.50581307  0.20391547  0.27977260    -0.01400
C34         C  0.49422835  0.79078611  0.71292839    -0.01400
C35         C  0.49977027  0.23649364  0.74516746    -0.01400
O36         O  0.28299563  0.22197769  0.59368924    -0.77400
C37         C  0.42977253  0.26329494  0.75441969     0.83600
O38         O  0.23254857  0.10396695  0.79752515    -0.78500
O39         O  0.27517392  0.29450891  0.91284175    -0.80000
O40         O  0.21211951  0.41933692  0.71105165    -0.79800
O41         O  0.20364004  0.28964928  0.60710095    -0.78400
Zn42       Zn  0.30098649  0.20893953  0.69259358     1.55700
O43         O  0.27788446  0.39633060  0.78996569    -0.79800
Cd44       Cd  0.19309543  0.31797922  0.70030798     1.59700
Cd45       Cd  0.19377352  0.19944032  0.80545712     1.59600
O46         O  0.09931103  0.30240526  0.72572377    -0.79800
O47         O  0.24821338  0.25761025  0.75291454    -1.90300
Cd48       Cd  0.30345860  0.30644142  0.81594072     1.59900
O49         O  0.09429485  0.21333608  0.78152644    -0.79800
O50         O  0.40709427  0.28955174  0.80445109    -0.78400
C51         C  0.25648589  0.07602736  0.74861914     0.84100
C52         C  0.23813932  0.25578254  0.57031859     0.83800
O53         O  0.39050878  0.24071889  0.71276182    -0.77400
C54         C  0.24957231  0.43785879  0.75551246     0.84600
O55         O  0.28565364  0.11021385  0.70748367    -0.77500
C56         C  0.06664864  0.26223084  0.75686390     0.84700
C57         C  0.23914014  0.25286168  0.93881247     0.85000
O58         O  0.19983893  0.22260513  0.90339967    -0.79900
O59         O  0.21614770  0.57170452  0.27749682    -0.77400
C60         C  0.23908210  0.73527176  0.42157332     0.83600
O61         O  0.09755935  0.78091963  0.21316575    -0.78500
O62         O  0.29498515  0.87923348  0.27814739    -0.80000
O63         O  0.40969245  0.71084129  0.19183494    -0.79800
O64         O  0.29593959  0.58958697  0.21187014    -0.78400
Zn65       Zn  0.19327120  0.67244036  0.29026913     1.55700
O66         O  0.39689516  0.74178669  0.29078092    -0.79800
Cd67       Cd  0.31062749  0.68216919  0.18321448     1.59700
Cd68       Cd  0.19582685  0.78642898  0.18399744     1.59600
O69         O  0.28815802  0.69612782  0.08520993    -0.79800
O70         O  0.24943495  0.72956363  0.24022580    -1.90300
Cd71       Cd  0.30514393  0.78058419  0.30127290     1.59900
O72         O  0.20093624  0.75524632  0.08576884    -0.79800
O73         O  0.28227380  0.77230753  0.40140523    -0.78400
C74         C  0.06678569  0.73316213  0.23434656     0.84100
C75         C  0.26153804  0.55041400  0.24301215     0.83800
O76         O  0.20797279  0.70049056  0.38172835    -0.77400
C77         C  0.43390194  0.73278243  0.24333018     0.84600
O78         O  0.09714472  0.69160488  0.26775618    -0.77500
C79         C  0.24715488  0.72999624  0.05480297     0.84700
C80         C  0.26231366  0.91200861  0.23760444     0.85000
O81         O  0.23155907  0.88251163  0.19302008    -0.79900
O82         O  0.71337696  0.20573554  0.11787181    -0.77400
C83         C  0.76843436  0.05827476  0.25956182     0.83600
O84         O  0.59633605  0.28070549  0.28994546    -0.78500
O85         O  0.77838987  0.19864569  0.41649666    -0.80000
O86         O  0.89667137  0.26483694  0.21982462    -0.79800
O87         O  0.78435162  0.28050327  0.09927833    -0.78400
Zn88       Zn  0.70349831  0.17891825  0.20980731     1.55700
O89         O  0.91481629  0.20982466  0.30789904    -0.79800
Cd90       Cd  0.80460765  0.29296890  0.19974603     1.59700
Cd91       Cd  0.69650015  0.29730911  0.31368677     1.59600
O92         O  0.79018826  0.39199618  0.21737373    -0.79800
O93         O  0.75372473  0.23935314  0.26098931    -1.90300
Cd94       Cd  0.81277572  0.18996262  0.32031095     1.59900
O95         O  0.72840173  0.39430253  0.30187245    -0.79800
O96         O  0.80131675  0.09670342  0.29384200    -0.78400
C97         C  0.57355886  0.23053417  0.26296170     0.84100
C98         C  0.74231431  0.24186417  0.07860429     0.83800
O99         O  0.72549914  0.07985306  0.22167143    -0.77400
C100        C  0.93627530  0.23929184  0.25933231     0.84600
O101        O  0.61192871  0.19324733  0.23512437    -0.77500
C102        C  0.75625818  0.42405029  0.25635219     0.84700
C103        C  0.74661127  0.24244893  0.44519427     0.85000
O104        O  0.70959536  0.27856257  0.41237339    -0.79900
O105        O  0.61139825  0.22956179  0.72768521    -0.77400
C106        C  0.75304053  0.26150948  0.57937302     0.83600
O107        O  0.77584496  0.10778908  0.80717345    -0.78500
O108        O  0.90333504  0.28981283  0.72130487    -0.80000
O109        O  0.72204487  0.39939180  0.78709414    -0.79800
O110        O  0.58911894  0.30023625  0.80120233    -0.78400
Zn111      Zn  0.69945579  0.20609793  0.70167603     1.55700
O112        O  0.79504333  0.42215743  0.71794945    -0.79800
Cd113      Cd  0.69317924  0.31283570  0.81781117     1.59700
Cd114      Cd  0.80466650  0.20527387  0.82017212     1.59600
O115        O  0.71851019  0.30483312  0.91626343    -0.79800
O116        O  0.75070965  0.25973477  0.76153505    -1.90300
Cd117      Cd  0.80764612  0.31843473  0.70934313     1.59900
O118        O  0.79121213  0.22832787  0.91740069    -0.79800
O119        O  0.78547252  0.29568247  0.61806477    -0.78400
C120        C  0.75003633  0.07804990  0.75972434     0.84100
C121        C  0.56957630  0.26010307  0.75947347     0.83800
O122        O  0.71254538  0.22204960  0.60092419    -0.77400
C123        C  0.75225289  0.44118215  0.75587989     0.84600
O124        O  0.71741710  0.10992607  0.71874239    -0.77500
C125        C  0.75076839  0.26273513  0.94705037     0.84700
C126        C  0.93390378  0.25944676  0.76503473     0.85000
O127        O  0.90312683  0.22402426  0.80355969    -0.79900
C128        C  0.73480285  0.78268423  0.98740250    -0.01400
C129        C  0.72039589  0.23344098  0.00802485    -0.01400
C130        C  0.26938739  0.76419389  0.99219242    -0.01400
C131        C  0.26378218  0.21936716  0.00184875    -0.01400
O132        O  0.28478982  0.91711296  0.77609779    -0.77400
C133        C  0.25034052  0.75351039  0.92075895     0.83600
O134        O  0.40221068  0.72045553  0.70142566    -0.78500
O135        O  0.20258027  0.60168083  0.76876460    -0.80000
O136        O  0.08626371  0.79096570  0.69512672    -0.79800
O137        O  0.20582718  0.90117153  0.70738729    -0.78400
Zn138      Zn  0.30246825  0.81454779  0.79224960     1.55700
O139        O  0.10277481  0.72364265  0.77452143    -0.79800
Cd140      Cd  0.18989697  0.80786885  0.68049011     1.59700
Cd141      Cd  0.30533906  0.69973899  0.68639331     1.59600
O142        O  0.22403893  0.79947707  0.58332605    -0.79800
O143        O  0.24871679  0.75656786  0.73924377    -1.90300
Cd144      Cd  0.19519319  0.69874233  0.79553174     1.59900
O145        O  0.28469680  0.71333820  0.58884749    -0.79800
O146        O  0.21374445  0.71023495  0.89806812    -0.78400
C147        C  0.43157846  0.75927941  0.73825671     0.84100
C148        C  0.24082711  0.93979182  0.73942344     0.83800
O149        O  0.27925582  0.79072775  0.88245042    -0.77400
C150        C  0.06404440  0.75518167  0.73906549     0.84600
O151        O  0.39991810  0.78906126  0.78131099    -0.77500
C152        C  0.25120226  0.75221261  0.55532813     0.84700
C153        C  0.24918081  0.57224706  0.74324832     0.85000
O154        O  0.28973065  0.60392341  0.71133323    -0.79900
C155        C  0.78141964  0.01297079  0.73857863    -0.01400
C156        C  0.22405349  0.01187854  0.72559842    -0.01400
C157        C  0.78436323  0.98726212  0.27283925    -0.01400
C158        C  0.23515204  0.97849331  0.26025095    -0.01400
O159        O  0.78926246  0.58266430  0.27835998    -0.77400
C160        C  0.93614702  0.74118038  0.23694578     0.83600
O161        O  0.71131005  0.78178446  0.39953368    -0.78500
O162        O  0.77677877  0.89811680  0.19831539    -0.80000
O163        O  0.71500172  0.71134992  0.08048903    -0.75800
O164        O  0.71293779  0.59893710  0.20644590    -0.78400
Zn165      Zn  0.80894908  0.68425039  0.29048799     1.55700
O166        O  0.79290055  0.78049187  0.08967859    -0.79800
Cd167      Cd  0.69261385  0.69175250  0.17913826     1.59700
Cd168      Cd  0.70032151  0.79721448  0.29818197     1.59600
O169        O  0.58989188  0.70724831  0.19393439    -0.79800
O170        O  0.75277766  0.74163045  0.23882529    -1.90300
Cd171      Cd  0.80625285  0.80072639  0.18695761     1.59900
O172        O  0.61076368  0.77631425  0.26988387    -0.79800
O173        O  0.90524992  0.78573921  0.20810040    -0.78400
C174        C  0.75413477  0.74367856  0.41945679     0.84100
C175        C  0.74621726  0.56030756  0.24068614     0.83800
O176        O  0.90676758  0.70531727  0.27635798    -0.77400
C177        C  0.75276408  0.75156634  0.05431738     0.84600
O178        O  0.78630641  0.71187843  0.37881799    -0.77500
C179        C  0.56989261  0.74586477  0.23631182     0.84700
C180        C  0.75084858  0.92654907  0.24565443     0.85000
O181        O  0.71674277  0.89450772  0.28392466    -0.79900
C182        C  0.99295970  0.74754801  0.76054404    -0.01400
C183        C  0.99890279  0.71552116  0.20471131    -0.01400
C184        C  0.00179611  0.28536758  0.78386615    -0.01400
C185        C  0.00694386  0.26095780  0.24698914    -0.01400
O186        O  0.20810048  0.27248042  0.09538332    -0.77400
C187        C  0.07528810  0.23252815  0.25982474     0.83600
O188        O  0.27631404  0.38768233  0.30191002    -0.78500
O189        O  0.23268312  0.18613939  0.41013704    -0.80000
O190        O  0.29815103  0.07305879  0.21435031    -0.79800
O191        O  0.28332601  0.20197799  0.11256528    -0.78400
Zn192      Zn  0.20216622  0.28597348  0.19678851     1.55700
O193        O  0.22120600  0.08774009  0.28350621    -0.79800
Cd194      Cd  0.31265271  0.17746318  0.20296914     1.59700
Cd195      Cd  0.30916457  0.29090819  0.31345824     1.59600
O196        O  0.40932435  0.20990466  0.21294084    -0.79800
O197        O  0.25568898  0.23346014  0.25604439    -1.90300
Cd198      Cd  0.19914186  0.17797225  0.31270490     1.59900
O199        O  0.40906900  0.26970774  0.30013928    -0.79800
O200        O  0.09377914  0.19050830  0.29979012    -0.78400
C201        C  0.24920540  0.41545043  0.25400470     0.84100
C202        C  0.24866097  0.23359868  0.07332244     0.83800
O203        O  0.11825913  0.26044644  0.22814666    -0.77400
C204        C  0.25515968  0.04983668  0.25036924     0.84600
O205        O  0.21817580  0.38155148  0.21364832    -0.77500
C206        C  0.43995047  0.23570548  0.25984013     0.84700
C207        C  0.25635401  0.23440311  0.43992325     0.85000
O208        O  0.29102518  0.27350804  0.40968092    -0.79900
C209        C  0.04599981  0.29582651  0.96291581     0.17000
C210        C  0.05580320  0.32120015  0.02324901    -0.32000
C211        C  0.03331521  0.28614595  0.07411522     0.21400
C212        C  0.00787546  0.22612610  0.06588745     0.03600
C213        C  0.99870805  0.20033265  0.00542352    -0.21700
C214        C  0.01591949  0.23808080  0.95412258     0.12800
S215        S  0.06196022  0.33492948  0.89543120    -0.05400
C216        C  0.01524337  0.27954783  0.85535503    -0.08900
C217        C  0.00097110  0.22685869  0.89206580    -0.25500
S218        S  0.98651652  0.19022834  0.13393437    -0.02700
C219        C  0.00782916  0.25875259  0.17412246    -0.16100
C220        C  0.03193307  0.30598656  0.13541363    -0.14100
H221        H  0.07635995  0.36781719  0.02994143     0.21300
H222        H  0.97556975  0.15492499  0.99863781     0.17300
H223        H  0.97902477  0.18346637  0.87549654     0.19800
H224        H  0.04953060  0.35162008  0.15083146     0.13200
C225        C  0.96255546  0.53609696  0.21756804     0.17000
C226        C  0.93466225  0.48042923  0.23806046    -0.32000
C227        C  0.97547564  0.43195062  0.25703145     0.21400
C228        C  0.04048236  0.43913233  0.25755154     0.03600
C229        C  0.06856724  0.49444103  0.23564074    -0.21700
C230        C  0.02771782  0.54244542  0.21501455     0.12800
S231        S  0.92167865  0.60224227  0.19998429    -0.05400
C232        C  0.99370376  0.64251777  0.19979946    -0.08900
C233        C  0.04540756  0.60146737  0.19750094    -0.25500
S234        S  0.08080981  0.37316815  0.27768504    -0.02700
C235        C  0.00998641  0.33105395  0.27052757    -0.16100
C236        C  0.95762610  0.37181058  0.26900753    -0.14100
H237        H  0.88363577  0.47517546  0.23897995     0.21300
H238        H  0.11962445  0.49970257  0.23465074     0.17300
H239        H  0.09440157  0.61443817  0.18993565     0.19800
H240        H  0.90809810  0.35930704  0.26934497     0.13200
C241        C  0.96967655  0.56877680  0.79819912     0.17000
C242        C  0.95757338  0.51088962  0.82627375    -0.32000
C243        C  0.96539192  0.45740264  0.78887330     0.21400
C244        C  0.98453336  0.46085301  0.72636200     0.03600
C245        C  0.99220945  0.51947186  0.69656936    -0.21700
C246        C  0.98490591  0.57341532  0.73457853     0.12800
S247        S  0.97138672  0.63728675  0.83891955    -0.05400
C248        C  0.98789030  0.67537359  0.76837725    -0.08900
C249        C  0.99510634  0.63451700  0.71694029    -0.25500
S250        S  0.00447276  0.38973723  0.69451731    -0.02700
C251        C  0.99332381  0.35643701  0.76914004    -0.16100
C252        C  0.96416005  0.39762530  0.81110456    -0.14100
H253        H  0.94730346  0.50741357  0.87646544     0.21300
H254        H  0.00736252  0.52279800  0.64770102     0.17300
H255        H  0.00710183  0.64918087  0.66928477     0.19800
H256        H  0.94744273  0.38548951  0.85799744     0.13200
C257        C  0.94903155  0.75965630  0.03304306     0.17000
C258        C  0.91812947  0.76155626  0.97504853    -0.32000
C259        C  0.95175020  0.78636158  0.92473471     0.21400
C260        C  0.01198886  0.81168778  0.93236166     0.03600
C261        C  0.04010669  0.81568510  0.99239429    -0.21700
C262        C  0.00811461  0.78642331  0.04187752     0.12800
S263        S  0.92379065  0.71517865  0.09326619    -0.05400
C264        C  0.99232135  0.73563673  0.13496664    -0.08900
C265        C  0.03367138  0.77257108  0.09946144    -0.25500
S266        S  0.05372949  0.81654827  0.86432253    -0.02700
C267        C  0.99071582  0.77905777  0.82620325    -0.16100
C268        C  0.93832746  0.77164750  0.86415651    -0.14100
H269        H  0.87453174  0.73540300  0.96783702     0.21300
H270        H  0.08820869  0.83221981  0.99884377     0.17300
H271        H  0.08123070  0.78729895  0.11053318     0.19800
H272        H  0.89689558  0.74483138  0.84980200     0.13200
C273        C  0.95577485  0.93192376  0.24326884     0.17000
C274        C  0.01441962  0.90350671  0.25187795    -0.32000
C275        C  0.06653471  0.93739466  0.23153613     0.21400
C276        C  0.06065552  0.99352322  0.19787188     0.03600
C277        C  0.00095097  0.01904967  0.18403928    -0.21700
C278        C  0.94890939  0.98867511  0.21070107     0.12800
S279        S  0.89097714  0.90688062  0.28095898    -0.05400
C280        C  0.85347690  0.97570913  0.25578701    -0.08900
C281        C  0.88954443  0.01350469  0.21614326    -0.25500
S282        S  0.12987344  0.03298723  0.18830444    -0.02700
C283        C  0.16577145  0.97648698  0.23698304    -0.16100
C284        C  0.12627850  0.92640116  0.25204297    -0.14100
H285        H  0.01979080  0.86129189  0.28071871     0.21300
H286        H  0.99599547  0.06408519  0.16040788     0.17300
H287        H  0.87453673  0.05788757  0.19481432     0.19800
H288        H  0.13987226  0.88656080  0.28185996     0.13200
C289        C  0.19468552  0.99055508  0.54483845     0.17000
C290        C  0.16739422  0.97993964  0.48567790    -0.32000
C291        C  0.20784446  0.97827013  0.43450611     0.21400
C292        C  0.27289924  0.98478912  0.44168374     0.03600
C293        C  0.30068689  0.99497434  0.50167443    -0.21700
C294        C  0.25950338  0.99861580  0.55321298     0.12800
S295        S  0.15204312  0.99472005  0.61098805    -0.05400
C296        C  0.22171866  0.01175569  0.65273802    -0.08900
C297        C  0.27567044  0.00990542  0.61535760    -0.25500
S298        S  0.31239101  0.98368187  0.37220795    -0.02700
C299        C  0.23977039  0.97509064  0.33294591    -0.16100
C300        C  0.18845238  0.97380063  0.37330141    -0.14100
H301        H  0.11648428  0.97462394  0.47962151     0.21300
H302        H  0.35144333  0.00133946  0.50760400     0.17300
H303        H  0.32392069  0.01506603  0.63287848     0.19800
H304        H  0.13878808  0.97375311  0.36000861     0.13200
C305        C  0.82082864  0.00600544  0.55894489     0.17000
C306        C  0.84918687  0.99719621  0.50065353    -0.32000
C307        C  0.80920535  0.99492200  0.44768196     0.21400
C308        C  0.74397088  0.00082570  0.45179820     0.03600
C309        C  0.71550056  0.01152644  0.51033961    -0.21700
C310        C  0.75584168  0.01422782  0.56364253     0.12800
S311        S  0.86101613  0.00386747  0.62868770    -0.05400
C312        C  0.78960730  0.01709639  0.66636362    -0.08900
C313        C  0.73770434  0.02145996  0.62477633    -0.25500
S314        S  0.70479163  0.99601042  0.38084730    -0.02700
C315        C  0.77779594  0.98549359  0.34518266    -0.16100
C316        C  0.82888627  0.98799758  0.38754648    -0.14100
H317        H  0.90011119  0.99120281  0.49681749     0.21300
H318        H  0.66453689  0.01689796  0.51426084     0.17300
H319        H  0.68862525  0.02548256  0.63905979     0.19800
H320        H  0.87865596  0.98878971  0.37581914     0.13200
C321        C  0.05536346  0.06813919  0.76448114     0.17000
C322        C  0.99635034  0.09588124  0.75724311    -0.32000
C323        C  0.94544066  0.06128322  0.77894521     0.21400
C324        C  0.95292113  0.00579493  0.81317262     0.03600
C325        C  0.01336870  0.98273535  0.82820461    -0.21700
C326        C  0.06431404  0.01291591  0.79920494     0.12800
S327        S  0.11657382  0.09032493  0.72023217    -0.05400
C328        C  0.15629194  0.02331425  0.74713632    -0.08900
C329        C  0.12337644  0.98773615  0.79130013    -0.25500
S330        S  0.88587046  0.96184412  0.81814005    -0.02700
C331        C  0.84852126  0.01658565  0.76873847    -0.16100
C332        C  0.88625849  0.06886485  0.75598411    -0.14100
H333        H  0.98947157  0.13645332  0.72630311     0.21300
H334        H  0.01932215  0.93859361  0.85294295     0.17300
H335        H  0.13990491  0.94429817  0.81342014     0.19800
H336        H  0.87242899  0.10759374  0.72477346     0.13200
C337        C  0.20784904  0.04289511  0.99376518     0.17000
C338        C  0.18244717  0.98409746  0.97678451    -0.32000
C339        C  0.21367469  0.93089083  0.00150421     0.21400
C340        C  0.26106980  0.93664845  0.04764222     0.03600
C341        C  0.28672676  0.99491398  0.06335069    -0.21700
C342        C  0.26189084  0.04680654  0.03141040     0.12800
S343        S  0.18158236  0.11371410  0.96680946    -0.05400
C344        C  0.25062269  0.14781644  0.99768211    -0.08900
C345        C  0.28849272  0.10467754  0.03063583    -0.25500
S346        S  0.29466325  0.86868254  0.07138293    -0.02700
C347        C  0.25442170  0.83276531  0.00881547    -0.16100
C348        C  0.20939988  0.87070722  0.97868732    -0.14100
H349        H  0.14427292  0.98000802  0.94198977     0.21300
H350        H  0.32810962  0.99884757  0.09432462     0.17300
H351        H  0.33289405  0.11547728  0.05490905     0.19800
H352        H  0.17919710  0.85660187  0.93913629     0.13200
C353        C  0.44013630  0.23877360  0.96029865     0.17000
C354        C  0.49890882  0.23560119  0.93258235    -0.32000
C355        C  0.55018118  0.25752830  0.96805518     0.21400
C356        C  0.54331671  0.28516705  0.02709620     0.03600
C357        C  0.48310260  0.29609891  0.05158737    -0.21700
C358        C  0.43191499  0.27080064  0.01699312     0.12800
S359        S  0.37618497  0.19873617  0.93250225    -0.05400
C360        C  0.33537716  0.22868804  0.99659522    -0.08900
C361        C  0.37126252  0.26803773  0.03646414    -0.25500
S362        S  0.61235239  0.29307039  0.06867712    -0.02700
C363        C  0.65024599  0.25384454  0.00693097    -0.16100
C364        C  0.61080300  0.24401614  0.95462391    -0.14100
H365        H  0.50519934  0.21046625  0.88890166     0.21300
H366        H  0.47693659  0.31692811  0.09821226     0.17300
H367        H  0.35468287  0.29277291  0.07822660     0.19800
H368        H  0.62465022  0.22521364  0.90911563     0.13200
C369        C  0.45098955  0.72892488  0.98268634     0.17000
C370        C  0.51203290  0.70320555  0.98497581    -0.32000
C371        C  0.56242081  0.74634540  0.98744615     0.21400
C372        C  0.55259159  0.81124980  0.98865852     0.03600
C373        C  0.49228095  0.83658100  0.98228982    -0.21700
C374        C  0.44238283  0.79377056  0.97890905     0.12800
S375        S  0.38220965  0.68700489  0.98656763    -0.05400
C376        C  0.34193450  0.75845251  0.98782601    -0.08900
C377        C  0.38101124  0.81017671  0.97613753    -0.25500
S378        S  0.61863462  0.85560392  0.99732133    -0.02700
C379        C  0.66217633  0.78631460  0.99112683    -0.16100
C380        C  0.62491930  0.73170923  0.98865600    -0.14100
H381        H  0.51988401  0.65241975  0.98624047     0.21300
H382        H  0.48438683  0.88740393  0.98188247     0.17300
H383        H  0.36587987  0.85861612  0.96790182     0.19800
H384        H  0.64310243  0.68366602  0.98568621     0.13200
C385        C  0.80021536  0.95706603  0.99330141     0.17000
C386        C  0.81476484  0.01640973  0.01878925    -0.32000
C387        C  0.77849016  0.06730934  0.99629202     0.21400
C388        C  0.73444676  0.06015680  0.94757964     0.03600
C389        C  0.72597313  0.00262243  0.91700160    -0.21700
C390        C  0.75760093  0.95094350  0.94311914     0.12800
S391        S  0.81805156  0.88799034  0.02987784    -0.05400
C392        C  0.76104248  0.85118087  0.98211360    -0.08900
C393        C  0.73921497  0.89051962  0.93361700    -0.25500
S394        S  0.68715955  0.12319694  0.93489484    -0.02700
C395        C  0.72635065  0.16173198  0.99641052    -0.16100
C396        C  0.77592261  0.12582042  0.02276924    -0.14100
H397        H  0.84596394  0.02125496  0.05989480     0.21300
H398        H  0.68983834  0.99678836  0.88046545     0.17300
H399        H  0.70396011  0.87688130  0.89814848     0.19800
H400        H  0.80863041  0.14135578  0.05976661     0.13200
C401        C  0.51824634  0.06140759  0.80450530     0.17000
C402        C  0.54399556  0.00072210  0.81077957    -0.32000
C403        C  0.50838464  0.95112546  0.78447011     0.21400
C404        C  0.44893737  0.96123959  0.75750642     0.03600
C405        C  0.42037619  0.01974533  0.75930809    -0.21700
C406        C  0.45747257  0.06969302  0.78051279     0.12800
S407        S  0.56134194  0.12904900  0.80780233    -0.05400
C408        C  0.49714703  0.16873781  0.77267242    -0.08900
C409        C  0.44465296  0.12975021  0.76468139    -0.25500
S410        S  0.42007226  0.90207248  0.71243997    -0.02700
C411        C  0.48770617  0.85979152  0.73279591    -0.16100
C412        C  0.52990866  0.89187825  0.77292005    -0.14100
H413        H  0.59257898  0.99363314  0.82646235     0.21300
H414        H  0.37534074  0.02748410  0.73547897     0.17300
H415        H  0.40077540  0.14045418  0.74066296     0.19800
H416        H  0.57492375  0.87428064  0.79113119     0.13200
C417        C  0.50924517  0.26038276  0.56327514     0.17000
C418        C  0.50716229  0.28502062  0.50192771    -0.32000
C419        C  0.51396945  0.24214564  0.45200414     0.21400
C420        C  0.52564115  0.17832531  0.46248383     0.03600
C421        C  0.52916631  0.15378125  0.52397253    -0.21700
C422        C  0.51891743  0.19612761  0.57389300     0.12800
S423        S  0.49772224  0.30412346  0.62961985    -0.05400
C424        C  0.50310330  0.23447918  0.67258580    -0.08900
C425        C  0.51526582  0.18068968  0.63646641    -0.25500
S426        S  0.53072082  0.13422692  0.39539960    -0.02700
C427        C  0.51061988  0.20167202  0.35227265    -0.16100
C428        C  0.50698577  0.25607928  0.38934217    -0.14100
H429        H  0.49789740  0.33488536  0.49341487     0.21300
H430        H  0.53679403  0.10362951  0.53237754     0.17300
H431        H  0.52203484  0.13313262  0.65471107     0.19800
H432        H  0.49855606  0.30352518  0.37134461     0.13200
C433        C  0.50833322  0.82223073  0.42540919     0.17000
C434        C  0.50506458  0.85320271  0.48385845    -0.32000
C435        C  0.50186696  0.81501631  0.53800973     0.21400
C436        C  0.50387503  0.74944305  0.53446870     0.03600
C437        C  0.50947826  0.71863473  0.47649620    -0.21700
C438        C  0.51081923  0.75658618  0.42247504     0.12800
S439        S  0.50525012  0.85892390  0.35337984    -0.05400
C440        C  0.50445209  0.78427441  0.31916152    -0.08900
C441        C  0.51047547  0.73481100  0.36223937    -0.25500
S442        S  0.49866276  0.71158249  0.60495717    -0.02700
C443        C  0.49174719  0.78517196  0.64064392    -0.16100
C444        C  0.49599465  0.83592339  0.59859243    -0.14100
H445        H  0.50265901  0.90445369  0.48686583     0.21300
H446        H  0.51052586  0.66732559  0.47341210     0.17300
H447        H  0.51133870  0.68501064  0.34942947     0.19800
H448        H  0.49761341  0.88565326  0.61105119     0.13200
C449        C  0.50456249  0.93453986  0.17038659     0.17000
C450        C  0.53011004  0.99525898  0.16196498    -0.32000
C451        C  0.50160416  0.04490934  0.19594209     0.21400
C452        C  0.44859684  0.03483318  0.23217019     0.03600
C453        C  0.41765421  0.97729194  0.23149343    -0.21700
C454        C  0.44800985  0.92696916  0.20228722     0.12800
S455        S  0.54717141  0.86601720  0.16353670    -0.05400
C456        C  0.48994112  0.82910842  0.20903271    -0.08900
C457        C  0.43748097  0.86649898  0.21954030    -0.25500
S458        S  0.43162437  0.09275909  0.28431095    -0.02700
C459        C  0.49611574  0.13486052  0.25610828    -0.16100
C460        C  0.52612688  0.10385834  0.20555915    -0.14100
H461        H  0.57543306  0.00171404  0.13915191     0.21300
H462        H  0.37776883  0.96957289  0.26176832     0.17300
H463        H  0.40026926  0.85346280  0.25132147     0.19800
H464        H  0.56309995  0.12125012  0.17537059     0.13200
C465        C  0.69419464  0.51152401  0.05268001     0.17000
C466        C  0.66987542  0.53194856  0.99459437    -0.32000
C467        C  0.71043727  0.52937387  0.94310876     0.21400
C468        C  0.77230410  0.50762822  0.94877365     0.03600
C469        C  0.79830542  0.49220368  0.00820474    -0.21700
C470        C  0.75738513  0.49450858  0.05996642     0.12800
S471        S  0.65080060  0.50640205  0.11908377    -0.05400
C472        C  0.71963235  0.48425113  0.15985298    -0.08900
C473        C  0.77279181  0.48086284  0.12143165    -0.25500
S474        S  0.80865741  0.49551994  0.87821594    -0.02700
C475        C  0.73829926  0.51713102  0.84084855    -0.16100
C476        C  0.69257906  0.53968010  0.88217657    -0.14100
H477        H  0.62061613  0.54614421  0.98910696     0.21300
H478        H  0.84695954  0.47606070  0.01337569     0.17300
H479        H  0.82091040  0.47225018  0.13795827     0.19800
H480        H  0.64613726  0.55763563  0.86858893     0.13200
C481        C  0.45201493  0.42919075  0.26237208     0.17000
C482        C  0.51122632  0.40402334  0.25169453    -0.32000
C483        C  0.56229932  0.44125293  0.26935232     0.21400
C484        C  0.55594344  0.49725715  0.30332747     0.03600
C485        C  0.49589140  0.51936519  0.32006664    -0.21700
C486        C  0.44394349  0.48550712  0.29567677     0.12800
S487        S  0.38810455  0.40257542  0.22283683    -0.05400
C488        C  0.34844940  0.46922589  0.24970179    -0.08900
C489        C  0.38339043  0.50764849  0.29077769    -0.25500
S490        S  0.62359160  0.54098817  0.30850631    -0.02700
C491        C  0.65833374  0.48551814  0.25901017    -0.16100
C492        C  0.62004012  0.43412579  0.24462222    -0.14100
H493        H  0.51704031  0.36259445  0.22169840     0.21300
H494        H  0.48989556  0.56507126  0.34278911     0.17300
H495        H  0.36712541  0.55139825  0.31216035     0.19800
H496        H  0.63311391  0.39530903  0.21346648     0.13200
C497        C  0.44828827  0.46402980  0.78094150     0.17000
C498        C  0.50729813  0.44619335  0.80270151    -0.32000
C499        C  0.55797938  0.46593199  0.76726328     0.21400
C500        C  0.55133874  0.49691902  0.70964320     0.03600
C501        C  0.49063729  0.50797241  0.68367325    -0.21700
C502        C  0.43903020  0.49226556  0.72221531     0.12800
S503        S  0.38545662  0.46215813  0.82790939    -0.05400
C504        C  0.34240221  0.50000855  0.76792512    -0.08900
C505        C  0.37702037  0.50855480  0.71242273    -0.25500
S506        S  0.62092779  0.52711849  0.68201992    -0.02700
C507        C  0.65706266  0.50121193  0.75201132    -0.16100
C508        C  0.61705246  0.46673933  0.79037841    -0.14100
H509        H  0.51388762  0.42545164  0.84950407     0.21300
H510        H  0.48409946  0.53373152  0.63955902     0.17300
H511        H  0.35876960  0.52677749  0.66772456     0.19800
H512        H  0.62962931  0.44539174  0.83567880     0.13200
C513        C  0.21505511  0.50529070  0.94779913     0.17000
C514        C  0.19205198  0.48578646  0.00681772    -0.32000
C515        C  0.23378160  0.49157992  0.05901516     0.21400
C516        C  0.29469663  0.51450398  0.05168226     0.03600
C517        C  0.31437151  0.54027745  0.99509010    -0.21700
C518        C  0.27264158  0.53655754  0.94391124     0.12800
S519        S  0.18422947  0.48365408  0.87576775    -0.05400
C520        C  0.25180535  0.51541338  0.84197404    -0.08900
C521        C  0.28924703  0.54968023  0.88388060    -0.25500
S522        S  0.34284281  0.50746815  0.11517392    -0.02700
C523        C  0.27849756  0.47849908  0.15683680    -0.16100
C524        C  0.22302787  0.47363304  0.12016423    -0.14100
H525        H  0.14650114  0.46258361  0.01094659     0.21300
H526        H  0.36259401  0.55676316  0.98965861     0.17300
H527        H  0.33246413  0.57436148  0.87160995     0.19800
H528        H  0.17690315  0.45984714  0.13739432     0.13200
C529        C  0.94573363  0.81355866  0.46896682     0.17000
C530        C  0.00565170  0.82003131  0.44160412    -0.32000
C531        C  0.05741658  0.79616535  0.47680912     0.21400
C532        C  0.04974402  0.77262493  0.53762138     0.03600
C533        C  0.99216084  0.77460310  0.56747062    -0.21700
C534        C  0.94020516  0.79186015  0.53067948     0.12800
S535        S  0.87641514  0.81125947  0.42682456    -0.05400
C536        C  0.84212518  0.77324205  0.49125539    -0.08900
C537        C  0.88154373  0.77175208  0.54417173    -0.25500
S538        S  0.11023039  0.72963793  0.56684671    -0.02700
C539        C  0.15048679  0.74620633  0.49785933    -0.16100
C540        C  0.11647267  0.78338573  0.45435550    -0.14100
H541        H  0.01045176  0.83336366  0.39226046     0.21300
H542        H  0.98650981  0.75232449  0.61326878     0.17300
H543        H  0.87212956  0.74744790  0.58783300     0.19800
H544        H  0.13262887  0.79834158  0.40811771     0.13200
C545        C  0.18350789  0.44118033  0.49397963     0.17000
C546        C  0.15471986  0.50007327  0.49579537    -0.32000
C547        C  0.19440530  0.55225011  0.49517078     0.21400
C548        C  0.25985274  0.54661116  0.49266212     0.03600
C549        C  0.28892666  0.48712508  0.49035096    -0.21700
C550        C  0.24881663  0.43447525  0.49109757     0.12800
S551        S  0.14271213  0.37336310  0.49765329    -0.05400
C552        C  0.21420173  0.33303873  0.49083378    -0.08900
C553        C  0.26696643  0.37258146  0.49075854    -0.25500
S554        S  0.29873378  0.61671708  0.49163396    -0.02700
C555        C  0.22536876  0.65388105  0.49682921    -0.16100
C556        C  0.17427685  0.61282694  0.49629542    -0.14100
H557        H  0.10356989  0.50501074  0.49822665     0.21300
H558        H  0.34005390  0.48214189  0.48824660     0.17300
H559        H  0.31593975  0.35678010  0.49193568     0.19800
H560        H  0.12456585  0.62556767  0.49410273     0.13200
C561        C  0.74306620  0.45125213  0.49816362     0.17000
C562        C  0.71529817  0.51106058  0.49397785    -0.32000
C563        C  0.75606191  0.56308756  0.49340896     0.21400
C564        C  0.82150485  0.55654423  0.49724429     0.03600
C565        C  0.84929191  0.49647465  0.50180047    -0.21700
C566        C  0.80838278  0.44418574  0.50168152     0.12800
S567        S  0.70168540  0.38249111  0.50036739    -0.05400
C568        C  0.77344146  0.34231185  0.50247986    -0.08900
C569        C  0.82616722  0.38222851  0.50523448    -0.25500
S570        S  0.86225286  0.62639276  0.49598557    -0.02700
C571        C  0.78975959  0.66473080  0.49088514    -0.16100
C572        C  0.73769938  0.62450876  0.48965104    -0.14100
H573        H  0.66420077  0.51682780  0.49124272     0.21300
H574        H  0.90035387  0.49069961  0.50494527     0.17300
H575        H  0.87511980  0.36773002  0.51136704     0.19800
H576        H  0.68868259  0.64013446  0.48670255     0.13200
C577        C  0.04886564  0.22213371  0.45363602     0.17000
C578        C  0.99002331  0.23850587  0.43020733    -0.32000
C579        C  0.93961210  0.22951444  0.46988719     0.21400
C580        C  0.94555168  0.19911948  0.52796012     0.03600
C581        C  0.00516735  0.17987489  0.55096521    -0.21700
C582        C  0.05723709  0.19548815  0.51345977     0.12800
S583        S  0.11361726  0.25068087  0.41998007    -0.05400
C584        C  0.15349306  0.23373603  0.48980745    -0.08900
C585        C  0.11870625  0.19976175  0.53397040    -0.25500
S586        S  0.87782340  0.19884305  0.57045716    -0.02700
C587        C  0.84360716  0.24576303  0.51105919    -0.16100
C588        C  0.88284126  0.25679452  0.46044143    -0.14100
H589        H  0.98519236  0.26629014  0.38724655     0.21300
H590        H  0.01125180  0.16126837  0.59864343     0.17300
H591        H  0.13507431  0.18560825  0.58086263     0.19800
H592        H  0.87026601  0.28486893  0.41893525     0.13200
loop_ 
_geom_bond_atom_site_label_1 
_geom_bond_atom_site_label_2 
_geom_bond_distance 
_geom_bond_site_symmetry_2 
_ccdc_geom_bond_type 
O1           C17   1.278       .  A
O1           Zn7   2.158       .  S
C2           O18   1.284       .  A
C2           O15   1.284       .  A
C2           C26   1.578       .  S
O3           C16   1.290       .  A
O3          Cd10   2.182       .  S
O4           C22   1.293       .  A
O4          Cd13   2.156       .  S
O5           C19   1.280       .  A
O5           Cd9   2.169       .  S
O6           C17   1.281       .  A
O6           Cd9   2.042       .  S
Zn7          O18   2.001       .  S
Zn7          O20   2.112       .  S
Zn7          O12   1.979       .  S
O8           C19   1.289       .  A
O8          Cd13   2.084       .  S
Cd9          O11   2.119       .  S
Cd9          O12   2.020       .  S
Cd10         O14   2.175       .  S
Cd10         O23   2.145       .  S
Cd10         O12   2.015       .  S
O11          C21   1.285       .  A
O12         Cd13   2.033       .  S
Cd13         O15   2.208       .  S
O14          C21   1.291       .  A
C16          O20   1.291       .  A
C16         C182   1.591       .  S
C17          C30   1.553       .  S
C19          C34   1.558       .  S
C21         C128   1.586       .  S
C22          O23   1.277       .  A
C22         C155   1.591   1_565  S
C24         C103   1.584       .  S
C24         C106   1.555       .  S
C24         C568   1.537       .  S
C24         C587   1.528       .  S
C25          C52   1.553       .  S
C25         C207   1.572       .  S
C25         C552   1.533       .  S
C25         C584   1.516       .  S
C26         C174   1.555       .  S
C26         C536   1.533       .  S
C26         C571   1.535       .  S
C27          C60   1.560       .  S
C27         C152   1.579       .  S
C27         C539   1.526       .  S
C27         C555   1.521       .  S
C28          C54   1.556       .  S
C28         C153   1.566       .  S
C28         C504   1.541       .  S
C28         C520   1.527       .  S
C29          C75   1.576       .  S
C29         C201   1.576       .  S
C29         C488   1.519       .  S
C29         C523   1.532       .  S
C30         C123   1.565       .  S
C30         C475   1.533       .  S
C30         C507   1.534       .  S
C31         C102   1.592       .  S
C31         C175   1.579       .  S
C31         C472   1.534       .  S
C31         C491   1.524       .  S
C32          C77   1.584       .  S
C32         C179   1.572       .  S
C32         C440   1.541       .  S
C32         C456   1.525       .  S
C33          C97   1.579       .  S
C33         C206   1.590       .  S
C33         C427   1.528       .  S
C33         C459   1.551       .  S
C34         C147   1.578       .  S
C34         C411   1.519       .  S
C34         C443   1.525       .  S
C35          C37   1.592       .  S
C35         C121   1.578       .  S
C35         C408   1.543       .  S
C35         C424   1.530       .  S
O36          C52   1.276       .  A
O36         Zn42   2.128       .  S
C37          O53   1.288       .  A
C37          O50   1.286       .  A
O38          C51   1.293       .  A
O38         Cd45   2.177       .  S
O39          C57   1.289       .  A
O39         Cd48   2.147       .  S
O40          C54   1.277       .  A
O40         Cd44   2.185       .  S
O41          C52   1.284       .  A
O41         Cd44   2.064       .  S
Zn42         O53   2.041       .  S
Zn42         O55   2.131       .  S
Zn42         O47   1.982       .  S
O43          C54   1.279       .  A
O43         Cd48   2.042       .  S
Cd44         O46   2.080       .  S
Cd44         O47   2.038       .  S
Cd45         O49   2.167       .  S
Cd45         O58   2.119       .  S
Cd45         O47   2.021       .  S
O46          C56   1.279       .  A
O47         Cd48   2.032       .  S
Cd48         O50   2.227       .  S
O49          C56   1.289       .  A
C51          O55   1.290       .  A
C51         C156   1.588       .  S
C56         C184   1.563       .  S
C57          O58   1.277       .  A
C57         C131   1.584   1_556  S
O59          C75   1.288       .  A
O59         Zn65   2.193       .  S
C60          O76   1.286       .  A
C60          O73   1.277       .  A
O61          C74   1.282       .  A
O61         Cd68   2.170       .  S
O62          C80   1.289       .  A
O62         Cd71   2.146       .  S
O63          C77   1.278       .  A
O63         Cd67   2.178       .  S
O64          C75   1.286       .  A
O64         Cd67   2.068       .  S
Zn65         O76   2.032       .  S
Zn65         O78   2.111       .  S
Zn65         O70   2.000       .  S
O66          C77   1.289       .  A
O66         Cd71   2.111       .  S
Cd67         O69   2.130       .  S
Cd67         O70   2.033       .  S
Cd68         O72   2.172       .  S
Cd68         O81   2.169       .  S
Cd68         O70   2.018       .  S
O69          C79   1.284       .  A
O70         Cd71   2.035       .  S
Cd71         O73   2.175       .  S
O72          C79   1.292       .  A
C74          O78   1.287       .  A
C74         C183   1.596   1_455  S
C79         C130   1.580   1_554  S
C80          O81   1.292       .  A
C80         C158   1.588       .  S
O82          C98   1.285       .  A
O82         Zn88   2.029       .  S
C83          O99   1.280       .  A
C83          O96   1.282       .  A
C83         C157   1.558   1_545  S
O84          C97   1.290       .  A
O84         Cd91   2.190       .  S
O85         C103   1.293       .  A
O85         Cd94   2.166       .  S
O86         C100   1.287       .  A
O86         Cd90   2.065       .  S
O87          C98   1.276       .  A
O87         Cd90   2.166       .  S
Zn88         O99   2.152       .  S
Zn88        O101   2.030       .  S
Zn88         O93   1.968       .  S
O89         C100   1.284       .  A
O89         Cd94   2.209       .  S
Cd90         O92   2.141       .  S
Cd90         O93   2.033       .  S
Cd91         O95   2.169       .  S
Cd91        O104   2.128       .  S
Cd91         O93   2.050       .  S
O92         C102   1.285       .  A
O93         Cd94   2.035       .  S
Cd94         O96   2.056       .  S
O95         C102   1.294       .  A
C97         O101   1.274       .  A
C98         C129   1.559       .  S
C100        C185   1.583   1_655  S
C103        O104   1.284       .  A
O105        C121   1.285       .  A
O105       Zn111   2.002       .  S
C106        O122   1.280       .  A
C106        O119   1.278       .  A
O107        C120   1.292       .  A
O107       Cd114   2.160       .  S
O108        C126   1.286       .  A
O108       Cd117   2.114       .  S
O109        C123   1.276       .  A
O109       Cd113   2.033       .  S
O110        C121   1.283       .  A
O110       Cd113   2.231       .  S
Zn111       O122   2.168       .  S
Zn111       O124   2.092       .  S
Zn111       O116   1.998       .  S
O112        C123   1.276       .  A
O112       Cd117   2.209       .  S
Cd113       O115   2.139       .  S
Cd113       O116   2.038       .  S
Cd114       O118   2.125       .  S
Cd114       O127   2.145       .  S
Cd114       O116   2.022       .  S
O115        C125   1.287       .  A
O116       Cd117   2.054       .  S
Cd117       O119   2.027       .  S
O118        C125   1.285       .  A
C120        O124   1.285       .  A
C120        C155   1.587       .  S
C125        C129   1.569   1_556  S
C126        O127   1.286       .  A
C126        C184   1.577   1_655  S
C128        C177   1.594   1_556  S
C128        C379   1.534       .  S
C128        C392   1.552       .  S
C129        C363   1.538       .  S
C129        C395   1.536   1_554  S
C130        C133   1.566       .  S
C130        C347   1.520   1_556  S
C130        C376   1.536       .  S
C131        C202   1.570       .  S
C131        C344   1.536   1_554  S
C131        C360   1.527   1_554  S
O132        C148   1.289       .  A
O132       Zn138   2.219       .  S
C133        O149   1.286       .  A
C133        O146   1.283       .  A
O134        C147   1.281       .  A
O134       Cd141   2.107       .  S
O135        C153   1.283       .  A
O135       Cd144   2.127       .  S
O136        C150   1.288       .  A
O136       Cd140   2.238       .  S
O137        C148   1.284       .  A
O137       Cd140   2.073       .  S
Zn138       O149   2.030       .  S
Zn138       O151   2.136       .  S
Zn138       O143   1.997       .  S
O139        C150   1.283       .  A
O139       Cd144   2.057       .  S
Cd140       O142   2.183       .  S
Cd140       O143   2.046       .  S
Cd141       O145   2.112       .  S
Cd141       O154   2.115       .  S
Cd141       O143   2.030       .  S
O142        C152   1.293       .  A
O143       Cd144   2.051       .  S
Cd144       O146   2.200       .  S
O145        C152   1.285       .  A
C147        O151   1.293       .  A
C148        C156   1.586   1_565  S
C150        C182   1.578   1_455  S
C153        O154   1.283       .  A
C155        C312   1.534       .  S
C155        C331   1.543       .  S
C156        C296   1.533       .  S
C156        C328   1.522       .  S
C157        C180   1.567       .  S
C157        C280   1.523       .  S
C157        C315   1.531       .  S
C158        C204   1.577   1_565  S
C158        C283   1.535       .  S
C158        C299   1.533       .  S
O159        C175   1.286       .  A
O159       Zn165   2.196       .  S
C160        O176   1.288       .  A
C160        O173   1.289       .  A
C160        C183   1.587       .  S
O161        C174   1.273       .  A
O161       Cd168   2.167       .  S
O162        C180   1.289       .  A
O162       Cd171   2.157       .  S
O163        C177   1.292       .  A
O163       Cd167   2.175       .  S
O164        C175   1.288       .  A
O164       Cd167   2.082       .  S
Zn165       O176   2.133       .  S
Zn165       O178   2.010       .  S
Zn165       O170   2.001       .  S
O166        C177   1.274       .  A
O166       Cd171   2.105       .  S
Cd167       O169   2.213       .  S
Cd167       O170   2.061       .  S
Cd168       O172   2.019       .  S
Cd168       O181   2.103       .  S
Cd168       O170   2.045       .  S
O169        C179   1.281       .  A
O170       Cd171   2.014       .  S
Cd171       O173   2.149       .  S
O172        C179   1.279       .  A
C174        O178   1.285       .  A
C180        O181   1.281       .  A
C182        C248   1.535       .  S
C182        C267   1.533       .  S
C183        C232   1.546       .  S
C183        C264   1.532       .  S
C184        C216   1.532       .  S
C184        C251   1.540   1_455  S
C185        C187   1.578       .  S
C185        C219   1.534       .  S
C185        C235   1.559       .  S
O186        C202   1.274       .  A
O186       Zn192   2.157       .  S
C187        O203   1.277       .  A
C187        O200   1.279       .  A
O188        C201   1.292       .  A
O188       Cd195   2.166       .  S
O189        C207   1.292       .  A
O189       Cd198   2.166       .  S
O190        C204   1.287       .  A
O190       Cd194   2.236       .  S
O191        C202   1.281       .  A
O191       Cd194   2.058       .  S
Zn192       O203   1.971       .  S
Zn192       O205   2.073       .  S
Zn192       O197   2.002       .  S
O193        C204   1.283       .  A
O193       Cd198   2.052       .  S
Cd194       O196   2.156       .  S
Cd194       O197   2.027       .  S
Cd195       O199   2.172       .  S
Cd195       O208   2.098       .  S
Cd195       O197   2.039       .  S
O196        C206   1.291       .  A
O197       Cd198   2.063       .  S
Cd198       O200   2.247       .  S
O199        C206   1.291       .  A
C201        O205   1.282       .  A
C207        O208   1.278       .  A
C209        S215   1.681       .  A
C209        C214   1.384       .  A
C209        C210   1.390   1_556  A
C210        C211   1.390       .  A
C210        H221   1.083       .  S
C211        C220   1.356       .  A
C211        C212   1.385       .  A
C212        S218   1.687   1_455  A
C212        C213   1.394   1_455  A
C213        C214   1.394   1_654  A
C213        H222   1.083   1_554  S
C214        C217   1.359       .  A
S215        C216   1.738       .  A
C216        C217   1.389       .  A
C217        H223   1.081   1_455  S
S218        C219   1.730   1_655  A
C219        C220   1.389       .  A
C220        H224   1.079       .  S
C225        S231   1.676       .  A
C225        C230   1.381   1_655  A
C225        C226   1.385       .  A
C226        C227   1.389       .  A
C226        H237   1.081       .  S
C227        C236   1.348       .  A
C227        C228   1.378   1_655  A
C228        S234   1.679       .  A
C228        C229   1.390       .  A
C229        C230   1.393       .  A
C229        H238   1.082       .  S
C230        C233   1.353       .  A
S231        C232   1.740       .  A
C232        C233   1.391   1_655  A
C233        H239   1.082       .  S
S234        C235   1.742       .  A
C235        C236   1.396   1_455  A
C236        H240   1.077       .  S
C241        S247   1.678       .  A
C241        C246   1.384       .  A
C241        C242   1.382       .  A
C242        C243   1.385       .  A
C242        H253   1.083       .  S
C243        C252   1.345       .  A
C243        C244   1.383       .  A
C244        S250   1.696   1_655  A
C244        C245   1.397       .  A
C245        C246   1.399       .  A
C245        H254   1.083   1_655  S
C246        C249   1.359       .  A
S247        C248   1.728       .  A
C248        C249   1.392       .  A
C249        H255   1.083   1_655  S
S250        C251   1.740   1_455  A
C251        C252   1.386       .  A
C252        H256   1.083       .  S
C257        S263   1.671       .  A
C257        C262   1.378   1_655  A
C257        C258   1.376   1_554  A
C258        C259   1.385       .  A
C258        H269   1.081       .  S
C259        C268   1.338       .  A
C259        C260   1.385   1_655  A
C260        S266   1.693       .  A
C260        C261   1.390       .  A
C261        C262   1.393   1_556  A
C261        H270   1.079       .  S
C262        C265   1.351       .  A
S263        C264   1.734       .  A
C264        C265   1.395   1_655  A
C265        H271   1.072       .  S
S266        C267   1.733   1_455  A
C267        C268   1.380       .  A
C268        H272   1.080       .  S
C273        S279   1.674       .  A
C273        C278   1.386       .  A
C273        C274   1.381   1_655  A
C274        C275   1.384       .  A
C274        H285   1.083       .  S
C275        C284   1.344       .  A
C275        C276   1.384       .  A
C276        S282   1.694   1_565  A
C276        C277   1.394   1_565  A
C277        C278   1.395   1_445  A
C277        H286   1.076   1_455  S
C278        C281   1.361   1_565  A
S279        C280   1.731       .  A
C280        C281   1.389   1_565  A
C281        H287   1.083       .  S
S282        C283   1.737   1_545  A
C283        C284   1.385       .  A
C284        H288   1.084       .  S
C289        S295   1.669       .  A
C289        C294   1.385       .  A
C289        C290   1.382       .  A
C290        C291   1.382       .  A
C290        H301   1.084       .  S
C291        C300   1.349       .  A
C291        C292   1.383       .  A
C292        S298   1.692       .  A
C292        C293   1.400       .  A
C293        C294   1.400       .  A
C293        H302   1.083   1_565  S
C294        C297   1.367   1_565  A
S295        C296   1.738   1_565  A
C296        C297   1.391       .  A
C297        H303   1.082       .  S
S298        C299   1.738       .  A
C299        C300   1.384       .  A
C300        H304   1.079       .  S
C305        S311   1.684       .  A
C305        C310   1.384       .  A
C305        C306   1.384   1_545  A
C306        C307   1.388       .  A
C306        H317   1.084       .  S
C307        C316   1.344       .  A
C307        C308   1.383   1_565  A
C308        S314   1.699   1_545  A
C308        C309   1.395       .  A
C309        C310   1.399       .  A
C309        H318   1.083       .  S
C310        C313   1.355       .  A
S311        C312   1.732       .  A
C312        C313   1.394       .  A
C313        H319   1.084       .  S
S314        C315   1.734       .  A
C315        C316   1.389       .  A
C316        H320   1.080       .  S
C321        S327   1.669       .  A
C321        C326   1.386       .  A
C321        C322   1.379   1_455  A
C322        C323   1.381       .  A
C322        H333   1.084       .  S
C323        C332   1.340       .  A
C323        C324   1.382       .  A
C324        S330   1.695   1_545  A
C324        C325   1.394   1_645  A
C325        C326   1.396   1_565  A
C325        H334   1.073       .  S
C326        C329   1.364   1_545  A
S327        C328   1.732       .  A
C328        C329   1.389   1_545  A
C329        H335   1.082       .  S
S330        C331   1.734   1_565  A
C331        C332   1.389       .  A
C332        H336   1.085       .  S
C337        S343   1.687       .  A
C337        C342   1.380   1_556  A
C337        C338   1.395   1_545  A
C338        C339   1.396   1_556  A
C338        H349   1.083       .  S
C339        C348   1.359   1_554  A
C339        C340   1.388       .  A
C340        S346   1.670       .  A
C340        C341   1.381       .  A
C341        C342   1.383   1_565  A
C341        H350   1.084       .  S
C342        C345   1.344       .  A
S343        C344   1.741       .  A
C344        C345   1.388   1_556  A
C345        H351   1.084       .  S
S346        C347   1.730       .  A
C347        C348   1.386   1_554  A
C348        H352   1.082       .  S
C353        S359   1.688       .  A
C353        C358   1.383   1_556  A
C353        C354   1.377       .  A
C354        C355   1.384       .  A
C354        H365   1.070       .  S
C355        C364   1.341       .  A
C355        C356   1.381   1_556  A
C356        S362   1.695       .  A
C356        C357   1.394       .  A
C357        C358   1.399       .  A
C357        H366   1.084       .  S
C358        C361   1.348       .  A
S359        C360   1.727       .  A
C360        C361   1.395   1_556  A
C361        H367   1.083       .  S
S362        C363   1.741       .  A
C363        C364   1.385   1_554  A
C364        H368   1.079       .  S
C369        S375   1.701       .  A
C369        C374   1.381       .  A
C369        C370   1.394       .  A
C370        C371   1.399       .  A
C370        H381   1.083       .  S
C371        C380   1.351       .  A
C371        C372   1.384       .  A
C372        S378   1.685       .  A
C372        C373   1.382       .  A
C373        C374   1.388       .  A
C373        H382   1.084       .  S
C374        C377   1.338       .  A
S375        C376   1.727       .  A
C376        C377   1.392       .  A
C377        H383   1.082       .  S
S378        C379   1.729       .  A
C379        C380   1.395       .  A
C380        H384   1.084       .  S
C385        S391   1.687   1_556  A
C385        C390   1.382       .  A
C385        C386   1.393   1_566  A
C386        C387   1.395   1_554  A
C386        H397   1.084       .  S
C387        C396   1.354   1_556  A
C387        C388   1.381       .  A
C388        S394   1.678       .  A
C388        C389   1.383       .  A
C389        C390   1.386   1_545  A
C389        H398   1.081   1_545  S
C390        C393   1.346       .  A
S391        C392   1.738   1_554  A
C392        C393   1.388       .  A
C393        H399   1.084       .  S
S394        C395   1.728       .  A
C395        C396   1.397   1_556  A
C396        H400   1.083       .  S
C401        S407   1.693       .  A
C401        C406   1.380       .  A
C401        C402   1.394       .  A
C402        C403   1.397   1_545  A
C402        H413   1.081   1_545  S
C403        C412   1.351       .  A
C403        C404   1.384       .  A
C404        S410   1.676       .  A
C404        C405   1.372   1_565  A
C405        C406   1.382       .  A
C405        H414   1.079       .  S
C406        C409   1.336       .  A
S407        C408   1.744       .  A
C408        C409   1.387       .  A
C409        H415   1.071       .  S
S410        C411   1.728       .  A
C411        C412   1.393       .  A
C412        H416   1.083       .  S
C417        S423   1.692       .  A
C417        C422   1.387       .  A
C417        C418   1.392       .  A
C418        C419   1.393       .  A
C418        H429   1.083       .  S
C419        C428   1.357       .  A
C419        C420   1.384       .  A
C420        S426   1.693       .  A
C420        C421   1.395       .  A
C421        C422   1.396       .  A
C421        H430   1.083       .  S
C422        C425   1.360       .  A
S423        C424   1.728       .  A
C424        C425   1.389       .  A
C425        H431   1.082       .  S
S426        C427   1.736       .  A
C427        C428   1.389       .  A
C428        H432   1.083       .  S
C433        S439   1.703       .  A
C433        C438   1.386       .  A
C433        C434   1.394       .  A
C434        C435   1.398       .  A
C434        H445   1.083       .  S
C435        C444   1.355       .  A
C435        C436   1.385       .  A
C436        S442   1.690       .  A
C436        C437   1.387       .  A
C437        C438   1.391       .  A
C437        H446   1.084       .  S
C438        C441   1.347       .  A
S439        C440   1.730       .  A
C440        C441   1.387       .  A
C441        H447   1.084       .  S
S442        C443   1.729       .  A
C443        C444   1.393       .  A
C444        H448   1.081       .  S
C449        S455   1.706       .  A
C449        C454   1.385       .  A
C449        C450   1.402       .  A
C450        C451   1.405   1_565  A
C450        H461   1.083   1_565  S
C451        C460   1.360       .  A
C451        C452   1.377       .  A
C452        S458   1.682       .  A
C452        C453   1.378   1_545  A
C453        C454   1.385       .  A
C453        H462   1.074       .  S
C454        C457   1.345       .  A
S455        C456   1.736       .  A
C456        C457   1.376       .  A
C457        H463   1.074       .  S
S458        C459   1.736       .  A
C459        C460   1.404       .  A
C460        H464   1.077       .  S
C465        S471   1.684       .  A
C465        C470   1.384       .  A
C465        C466   1.387   1_554  A
C466        C467   1.390       .  A
C466        H477   1.084       .  S
C467        C476   1.349       .  A
C467        C468   1.384       .  A
C468        S474   1.698       .  A
C468        C469   1.397   1_556  A
C469        C470   1.399       .  A
C469        H478   1.083       .  S
C470        C473   1.360       .  A
S471        C472   1.737       .  A
C472        C473   1.392       .  A
C473        H479   1.082       .  S
S474        C475   1.728       .  A
C475        C476   1.389       .  A
C476        H480   1.083       .  S
C481        S487   1.670       .  A
C481        C486   1.389       .  A
C481        C482   1.375       .  A
C482        C483   1.379       .  A
C482        H493   1.085       .  S
C483        C492   1.337       .  A
C483        C484   1.386       .  A
C484        S490   1.701       .  A
C484        C485   1.396       .  A
C485        C486   1.399       .  A
C485        H494   1.083       .  S
C486        C489   1.360       .  A
S487        C488   1.731       .  A
C488        C489   1.388       .  A
C489        H495   1.083       .  S
S490        C491   1.732       .  A
C491        C492   1.383       .  A
C492        H496   1.085       .  S
C497        S503   1.663       .  A
C497        C502   1.383       .  A
C497        C498   1.370       .  A
C498        C499   1.376       .  A
C498        H509   1.085       .  S
C499        C508   1.330       .  A
C499        C500   1.383       .  A
C500        S506   1.709       .  A
C500        C501   1.402       .  A
C501        C502   1.405       .  A
C501        H510   1.083       .  S
C502        C505   1.363       .  A
S503        C504   1.738       .  A
C504        C505   1.397       .  A
C505        H511   1.082       .  S
S506        C507   1.736       .  A
C507        C508   1.383       .  A
C508        H512   1.084       .  S
C513        S519   1.702       .  A
C513        C518   1.385       .  A
C513        C514   1.402   1_556  A
C514        C515   1.402       .  A
C514        H525   1.082       .  S
C515        C524   1.364       .  A
C515        C516   1.383       .  A
C516        S522   1.672       .  A
C516        C517   1.379   1_554  A
C517        C518   1.383       .  A
C517        H526   1.082       .  S
C518        C521   1.344       .  A
S519        C520   1.736       .  A
C520        C521   1.379       .  A
C521        H527   1.084       .  S
S522        C523   1.736       .  A
C523        C524   1.395       .  A
C524        H528   1.082       .  S
C529        S535   1.698       .  A
C529        C534   1.384       .  A
C529        C530   1.401   1_655  A
C530        C531   1.402       .  A
C530        H541   1.082       .  S
C531        C540   1.363       .  A
C531        C532   1.385       .  A
C532        S538   1.672       .  A
C532        C533   1.374   1_455  A
C533        C534   1.380       .  A
C533        H542   1.081       .  S
C534        C537   1.341       .  A
S535        C536   1.742       .  A
C536        C537   1.380       .  A
C537        H543   1.073       .  S
S538        C539   1.727       .  A
C539        C540   1.395       .  A
C540        H544   1.083       .  S
C545        S551   1.672       .  A
C545        C550   1.385       .  A
C545        C546   1.381       .  A
C546        C547   1.383       .  A
C546        H557   1.084       .  S
C547        C556   1.345       .  A
C547        C548   1.385       .  A
C548        S554   1.691       .  A
C548        C549   1.395       .  A
C549        C550   1.396       .  A
C549        H558   1.083       .  S
C550        C553   1.359       .  A
S551        C552   1.735       .  A
C552        C553   1.391       .  A
C553        H559   1.083       .  S
S554        C555   1.736       .  A
C555        C556   1.382       .  A
C556        H560   1.081       .  S
C561        S567   1.694       .  A
C561        C566   1.384       .  A
C561        C562   1.391       .  A
C562        C563   1.394       .  A
C562        H573   1.083       .  S
C563        C572   1.353       .  A
C563        C564   1.386       .  A
C564        S570   1.706       .  A
C564        C565   1.397       .  A
C565        C566   1.400       .  A
C565        H574   1.083       .  S
C566        C569   1.360       .  A
S567        C568   1.731       .  A
C568        C569   1.395       .  A
C569        H575   1.081       .  S
S570        C571   1.728       .  A
C571        C572   1.387       .  A
C572        H576   1.084       .  S
C577        S583   1.660       .  A
C577        C582   1.388       .  A
C577        C578   1.371   1_455  A
C578        C579   1.373       .  A
C578        H589   1.081       .  S
C579        C588   1.338       .  A
C579        C580   1.384       .  A
C580        S586   1.694       .  A
C580        C581   1.399   1_655  A
C581        C582   1.400       .  A
C581        H590   1.083       .  S
C582        C585   1.362       .  A
S583        C584   1.720       .  A
C584        C585   1.391       .  A
C585        H591   1.083       .  S
S586        C587   1.742       .  A
C587        C588   1.377       .  A
C588        H592   1.085       .  S
