geometry optimzed in LAMMPS
_audit_creation_date              2020-12-01 
_audit_creation_method            'lammps2cif' 
_symmetry_space_group_name_H-M    'P1' 
_symmetry_Int_Tables_number       1 
_symmetry_cell_setting            triclinic 
loop_ 
_symmetry_equiv_pos_as_xyz 
  x,y,z 
_cell_length_a                    35.47296067 
_cell_length_b                    35.30223263987949 
_cell_length_c                    50.9137913348288 
_cell_angle_alpha                 89.4837719176071 
_cell_angle_beta                  90.42180904626073 
_cell_angle_gamma                 119.56048270876907 
loop_ 
_atom_site_label 
_atom_site_type_symbol 
_atom_site_fract_x 
_atom_site_fract_y 
_atom_site_fract_z 
_atom_site_charge 
O1          O  0.83246084  0.05557124  0.36064978    -0.85900
O2          O  0.81387858  0.12124086  0.35217676    -0.82900
C3          C  0.78348514  0.11417212  0.36786774     0.97600
O4          O  0.79101190  0.12165662  0.39201667    -0.83000
O5          O  0.82214575  0.11475934  0.43982226    -0.85600
C6          C  0.81200889  0.07481612  0.44136876     1.02100
O7          O  0.83104712  0.06011306  0.42750235    -0.78400
O8          O  0.87731199  0.05088226  0.38818867    -0.78600
C9          C  0.84584986  0.03309621  0.37245821     1.02000
O10         O  0.92560563  0.11801127  0.35859338    -0.85900
O11         O  0.90503834  0.18280111  0.35386393    -0.83000
C12         C  0.89661179  0.21127994  0.36214128     0.97600
O13         O  0.86959467  0.20284873  0.38056669    -0.83000
O14         O  0.90362643  0.19418862  0.42766500    -0.85600
C15         C  0.91612720  0.17773776  0.44536493     1.02100
O16         O  0.90520320  0.13793201  0.44431598    -0.78400
O17         O  0.94796420  0.13520323  0.39942585    -0.78600
C18         C  0.95586322  0.13176255  0.37567978     1.02000
Cr19       Cr  0.86919092  0.11987908  0.35891862     1.93700
Cr20       Cr  0.84823058  0.15626101  0.40872377     1.93200
Cr21       Cr  0.88908564  0.09827765  0.41338733     1.39100
O22         O  0.86890113  0.12530632  0.39353080    -1.23600
O23         O  0.16691420  0.22299388  0.64912535    -0.85900
O24         O  0.18215670  0.30681008  0.65509487    -0.82900
C25         C  0.21143067  0.32723565  0.63819282     0.97600
O26         O  0.20172757  0.32477604  0.61410318    -0.83000
O27         O  0.16269016  0.28440192  0.56759179    -0.85600
C28         C  0.17280441  0.25471443  0.56488246     1.02100
O29         O  0.15787821  0.22259436  0.58041221    -0.78400
O30         O  0.12087564  0.17100548  0.62359098    -0.78600
C31         C  0.15332232  0.18634896  0.63868262     1.02000
O32         O  0.07431421  0.18952122  0.65560351    -0.85900
O33         O  0.09043543  0.27392092  0.65677708    -0.83000
C34         C  0.09835987  0.31074979  0.64827557     0.97600
O35         O  0.12439833  0.32871513  0.62923705    -0.83000
O36         O  0.08321656  0.28227045  0.58439587    -0.85600
C37         C  0.06519848  0.24915112  0.56986427     1.02100
O38         O  0.07910850  0.22251771  0.56938386    -0.78400
O39         O  0.04611294  0.18065018  0.61612625    -0.78600
C40         C  0.04189850  0.17131422  0.64025870     1.02000
Cr41       Cr  0.12822716  0.24865209  0.65151302     1.93700
Cr42       Cr  0.14184410  0.30160589  0.60015557     1.93200
Cr43       Cr  0.10259744  0.20284406  0.59874930     1.39100
O44         O  0.12425232  0.25133595  0.61684618    -1.23600
O45         O  0.05661228  0.84353393  0.65143642    -0.85900
O46         O  0.11586441  0.81410893  0.65390123    -0.82900
C47         C  0.10038833  0.78448721  0.63672859     0.97600
O48         O  0.10445567  0.79414928  0.61270587    -0.83000
O49         O  0.10339767  0.83632906  0.56792743    -0.85600
C50         C  0.06605111  0.83310312  0.56793851     1.02100
O51         O  0.05707442  0.85394047  0.58431915    -0.78400
O52         O  0.05753580  0.89671674  0.62869081    -0.78600
C53         C  0.03720210  0.86277262  0.64252201     1.02000
O54         O  0.12740938  0.93312516  0.65727184    -0.85900
O55         O  0.18538892  0.90295597  0.65439478    -0.83000
C56         C  0.20873728  0.89053769  0.64281598     0.97600
O57         O  0.19289408  0.86225452  0.62470597    -0.83000
O58         O  0.18926137  0.90699171  0.58197197    -0.85600
C59         C  0.17771834  0.92885558  0.56789906     1.02100
O60         O  0.14010554  0.92384944  0.56976074    -0.78400
O61         O  0.14554211  0.96106064  0.61766859    -0.78600
C62         C  0.14395897  0.96605171  0.64201361     1.02000
Cr63       Cr  0.12144564  0.87359996  0.65186088     1.93700
Cr64       Cr  0.14592377  0.85163882  0.59830463     1.93200
Cr65       Cr  0.10176952  0.90683849  0.60124143     1.39100
O66         O  0.12343208  0.87740174  0.61715477    -1.23600
O67         O  0.20216508  0.14114266  0.36442870    -0.85900
O68         O  0.28984959  0.20226741  0.36478707    -0.82900
C69         C  0.32756248  0.22403685  0.37425745     0.97600
O70         O  0.34295719  0.20689004  0.38981376    -0.83000
O71         O  0.29982978  0.19406809  0.43655919    -0.85600
C72         C  0.26873316  0.17762717  0.45256519     1.02100
O73         O  0.23829926  0.13918246  0.44953491    -0.78400
O74         O  0.19766682  0.15023469  0.40663105    -0.78600
C75         C  0.18666564  0.15244997  0.38334436     1.02000
O76         O  0.22670322  0.07348537  0.35933306    -0.85900
O77         O  0.31273703  0.13682074  0.35497888    -0.83000
C78         C  0.33219248  0.12106415  0.36820490     0.97600
O79         O  0.32977551  0.11937680  0.39298089    -0.83000
O80         O  0.29242515  0.10887221  0.44199052    -0.85600
C81         C  0.26001585  0.07069594  0.44188425     1.02100
O82         O  0.22841010  0.06119666  0.42677507    -0.78400
O83         O  0.17805044  0.06671448  0.38780811    -0.78600
C84         C  0.19065526  0.05054581  0.37034925     1.02000
Cr85       Cr  0.25808766  0.13812327  0.36333791     1.93700
Cr86       Cr  0.31269846  0.15571137  0.41404394     1.93200
Cr87       Cr  0.21415972  0.10640313  0.41630871     1.39100
O88         O  0.26200382  0.13381765  0.39783700    -1.23600
O89         O  0.93844203  0.82185237  0.34889222    -0.85900
O90         O  0.92179065  0.73778861  0.35301968    -0.82900
C91         C  0.91031307  0.70102740  0.36311711     0.97600
O92         O  0.87723830  0.68277069  0.37776525    -0.83000
O93         O  0.91307659  0.72993347  0.42259639    -0.85600
C94         C  0.92828070  0.76169875  0.43808641     1.02100
O95         O  0.91822682  0.79127299  0.43563747    -0.78400
O96         O  0.96023436  0.83184126  0.38990056    -0.78600
C97         C  0.96831333  0.84041816  0.36583554     1.02000
O98         O  0.84636514  0.79054680  0.34777394    -0.85900
O99         O  0.82981422  0.70542022  0.34638441    -0.83000
C100        C  0.79712623  0.68707390  0.36136284     0.97600
O101        O  0.80169243  0.69238204  0.38585696    -0.83000
O102        O  0.83442796  0.73291700  0.43315821    -0.85600
C103        C  0.82567408  0.76372451  0.43341600     1.02100
O104        O  0.84338947  0.79479299  0.41731814    -0.78400
O105        O  0.88791745  0.84284731  0.37488608    -0.78600
C106        C  0.85798491  0.82715598  0.35788658     1.02000
Cr107      Cr  0.88378313  0.76357582  0.35136497     1.93700
Cr108      Cr  0.85803173  0.71282852  0.40353722     1.93200
Cr109      Cr  0.90112495  0.81175343  0.40320103     1.39100
O110        O  0.88074287  0.76261942  0.38602505    -1.23600
O111        O  0.79899042  0.93457927  0.65088623    -0.85900
O112        O  0.71095225  0.90490088  0.64797640    -0.82900
C113        C  0.67332095  0.88889334  0.63840388     0.97600
O114        O  0.65997146  0.85838982  0.62181653    -0.83000
O115        O  0.70623950  0.90274733  0.57779132    -0.85600
C116        C  0.73869045  0.92376468  0.56322291     1.02100
O117        O  0.77000590  0.91630723  0.56404695    -0.78400
O118        O  0.80648013  0.95726864  0.61004048    -0.78600
C119        C  0.81493532  0.96524739  0.63405557     1.02000
O120        O  0.78121729  0.84542597  0.65005674    -0.85900
O121        O  0.69249250  0.81515693  0.65160129    -0.83000
C122        C  0.67511565  0.78365293  0.63554312     0.97600
O123        O  0.68015727  0.79067272  0.61112668    -0.83000
O124        O  0.72005522  0.83051325  0.56444899    -0.85600
C125        C  0.75356009  0.82619878  0.56387599     1.02100
O126        O  0.78374910  0.84588958  0.58017323    -0.78400
O127        O  0.82975574  0.89226994  0.62282660    -0.78600
C128        C  0.81903937  0.86378930  0.64068867     1.02000
Cr129      Cr  0.74550917  0.87476646  0.64761204     1.93700
Cr130      Cr  0.69522465  0.84746103  0.59509785     1.93200
Cr131      Cr  0.79382585  0.90085397  0.59554835     1.39100
O132        O  0.74472320  0.87395545  0.61285619    -1.23600
O133        O  0.50166449  0.89494303  0.30327662    -0.85900
O134        O  0.52175974  0.97948267  0.31298746    -0.82900
C135        C  0.55185242  0.00163900  0.29684572     0.97600
O136        O  0.54345905  0.00334389  0.27290841    -0.83000
O137        O  0.50745798  0.97089608  0.22498126    -0.85600
C138        C  0.51813335  0.94183854  0.22153238     1.02100
O139        O  0.50125446  0.90755190  0.23522717    -0.78400
O140        O  0.45748964  0.84875213  0.27436990    -0.78600
C141        C  0.48763384  0.85983665  0.29087651     1.02000
O142        O  0.40982555  0.86662600  0.30717021    -0.85900
O143        O  0.43088878  0.95189952  0.31360435    -0.83000
C144        C  0.44149513  0.99040473  0.30711872     0.97600
O145        O  0.46788430  0.00930646  0.28842515    -0.83000
O146        O  0.42839637  0.96926313  0.24151886    -0.85600
C147        C  0.41192129  0.93945906  0.22461010     1.02100
O148        O  0.42450327  0.91184195  0.22285122    -0.78400
O149        O  0.38580142  0.86259755  0.26677869    -0.78600
C150        C  0.37904430  0.85066022  0.29052860     1.02000
Cr151      Cr  0.46596262  0.92394548  0.30661196     1.93700
Cr152      Cr  0.48523734  0.98445309  0.25814862     1.93200
Cr153      Cr  0.44390456  0.88625424  0.25135796     1.39100
O154        O  0.46481126  0.93176286  0.27220341    -1.23600
O155        O  0.17091763  0.71836649  0.02539251    -0.85900
O156        O  0.14841160  0.78304112  0.02012087    -0.82900
C157        C  0.11424082  0.77003036  0.03344456     0.97600
O158        O  0.11560521  0.77046860  0.05821004    -0.83000
O159        O  0.14085259  0.75975496  0.10773020    -0.85600
C160        C  0.13335295  0.72064184  0.10820830     1.02100
O161        O  0.15530888  0.70948033  0.09416026    -0.78400
O162        O  0.20948284  0.70956307  0.05606304    -0.78600
C163        C  0.18431076  0.69516039  0.03657323     1.02000
O164        O  0.26065425  0.78477030  0.03100973    -0.85900
O165        O  0.23646225  0.84755896  0.02916198    -0.83000
C166        C  0.22231110  0.87142363  0.03798453     0.97600
O167        O  0.19078916  0.85627488  0.05388854    -0.83000
O168        O  0.22012070  0.84309612  0.10134880    -0.85600
C169        C  0.23275676  0.82589836  0.11850050     1.02100
O170        O  0.22439777  0.78698478  0.11595114    -0.78400
O171        O  0.27503430  0.79307851  0.07327833    -0.78600
C172        C  0.28757328  0.79597421  0.04981702     1.02000
Cr173      Cr  0.20335805  0.78318332  0.02914872     1.93700
Cr174      Cr  0.16884382  0.80554620  0.07902096     1.93200
Cr175      Cr  0.21467395  0.75206085  0.08334145     1.39100
O176        O  0.19559078  0.78045597  0.06371318    -1.23600
O177        O  0.14464919  0.61136390  0.30951295    -0.85900
O178        O  0.05838643  0.58064036  0.32081215    -0.82900
C179        C  0.01806433  0.56245379  0.31669375     0.97600
O180        O  0.99947025  0.52928566  0.30218281    -0.83000
O181        O  0.02679700  0.56439386  0.25229500    -0.85600
C182        C  0.05153359  0.57946832  0.23267673     1.02100
O183        O  0.08179853  0.57097181  0.22964838    -0.78400
O184        O  0.13465716  0.62362708  0.26838871    -0.78600
C185        C  0.15230488  0.63764496  0.29038222     1.02000
O186        O  0.12840408  0.52146314  0.31211183    -0.85900
O187        O  0.04349485  0.49316570  0.32722993    -0.83000
C188        C  0.02075853  0.45870468  0.31415680     0.97600
O189        O  0.01606010  0.46032031  0.28966680    -0.83000
O190        O  0.03504252  0.48897132  0.23858474    -0.85600
C191        C  0.06708367  0.48371133  0.23340024     1.02100
O192        O  0.10265057  0.50562592  0.24520594    -0.78400
O193        O  0.16412662  0.56365743  0.27923568    -0.78600
C194        C  0.15950579  0.53542554  0.29611672     1.02000
Cr195      Cr  0.09271407  0.55105801  0.31516161     1.93700
Cr196      Cr  0.02311452  0.51284430  0.27146965     1.93200
Cr197      Cr  0.11802431  0.56438406  0.25739046     1.39100
O198        O  0.07776860  0.54261829  0.28154130    -1.23600
O199        O  0.25839903  0.46769445  0.03524792    -0.85900
O200        O  0.23877835  0.38259271  0.03173732    -0.82900
C201        C  0.22814380  0.34452238  0.03922414     0.90400
O202        O  0.19698027  0.32460425  0.05513095    -0.83000
O203        O  0.23547229  0.36630010  0.10230974    -0.85600
C204        C  0.25029773  0.39577314  0.11954143     1.02100
O205        O  0.23868644  0.42432943  0.11988865    -0.78400
O206        O  0.27873823  0.47273025  0.07651462    -0.78600
C207        C  0.28757056  0.48415720  0.05285543     1.02000
O208        O  0.16659963  0.43968008  0.03577500    -0.85900
O209        O  0.14604487  0.35443878  0.02883419    -0.83000
C210        C  0.11472906  0.33520235  0.04479264     0.97600
O211        O  0.12201149  0.33336487  0.06890416    -0.83000
O212        O  0.15667388  0.36544913  0.11712258    -0.85600
C213        C  0.14628625  0.39474207  0.12021731     1.02100
O214        O  0.16200647  0.42781675  0.10548147    -0.78400
O215        O  0.20684074  0.48599373  0.06599228    -0.78600
C216        C  0.17899189  0.47488560  0.04786833     1.02000
Cr217      Cr  0.20225567  0.41024281  0.03537800     1.93700
Cr218      Cr  0.17931019  0.35102430  0.08454448     1.93200
Cr219      Cr  0.22002119  0.44925687  0.09040167     1.39100
O220        O  0.20062251  0.40346806  0.06998384    -1.23600
O221        O  0.54150437  0.81871435  0.04031444    -0.85900
O222        O  0.62226524  0.83808800  0.02165136    -0.82900
C223        C  0.65001032  0.87267856  0.03297711     0.97600
O224        O  0.65833684  0.87222406  0.05710772    -0.83000
O225        O  0.64021074  0.84974934  0.10949624    -0.85600
C226        C  0.61020760  0.85830043  0.11497420     1.02100
O227        O  0.57314809  0.83659875  0.10487994    -0.78400
O228        O  0.50625339  0.77948351  0.07433308    -0.78600
C229        C  0.51139520  0.80695395  0.05681271     1.02000
O230        O  0.51734201  0.72685459  0.04436055    -0.85900
O231        O  0.59871350  0.74812779  0.03001449    -0.83000
C232        C  0.63818540  0.76029310  0.03354234     0.97600
O233        O  0.66215765  0.79410606  0.04679805    -0.83000
O234        O  0.63791892  0.76702342  0.09765810    -0.85600
C235        C  0.61482312  0.75523474  0.11798826     1.02100
O236        O  0.58868328  0.76889537  0.12194278    -0.78400
O237        O  0.52953660  0.71475144  0.08511735    -0.78600
C238        C  0.51024276  0.70073430  0.06346698     1.02000
Cr239      Cr  0.57144730  0.78389060  0.03633248     1.93700
Cr240      Cr  0.64586971  0.81907461  0.07720536     1.93200
Cr241      Cr  0.55212560  0.77610546  0.09473109     1.39100
O242        O  0.59013543  0.79340487  0.06919603    -1.23600
O243        O  0.39618262  0.51392949  0.31495603    -0.85900
O244        O  0.45768705  0.48874108  0.32347187    -0.82900
C245        C  0.44874765  0.45830561  0.30724804     0.97600
O246        O  0.45746546  0.46642163  0.28319767    -0.83000
O247        O  0.46345437  0.50437253  0.23492267    -0.85600
C248        C  0.42463815  0.49549783  0.23060481     1.02100
O249        O  0.40757836  0.51201493  0.24473179    -0.78400
O250        O  0.39442918  0.55665312  0.28413144    -0.78600
C251        C  0.37571448  0.52851018  0.30195412     1.02000
O252        O  0.46211627  0.60475360  0.31751767    -0.85900
O253        O  0.52354043  0.57960624  0.32350973    -0.83000
C254        C  0.54952063  0.56683190  0.31690070     0.97600
O255        O  0.53913317  0.53811087  0.29938353    -0.83000
O256        O  0.54105055  0.58094524  0.25373462    -0.85600
C257        C  0.52948384  0.59881642  0.23644285     1.02100
O258        O  0.48997506  0.58758683  0.23349745    -0.78400
O259        O  0.48024111  0.62711197  0.27676900    -0.78600
C260        C  0.47671839  0.63510536  0.30042206     1.02000
Cr261      Cr  0.46055581  0.54664739  0.31723230     1.93700
Cr262      Cr  0.49805462  0.52404259  0.26891941     1.93200
Cr263      Cr  0.44467996  0.56903605  0.26141009     1.39100
O264        O  0.46767443  0.54642628  0.28272034    -1.23600
O265        O  0.72552394  0.17107758  0.98420374    -0.85900
O266        O  0.79061549  0.14883876  0.98977609    -0.82900
C267        C  0.77902710  0.11569841  0.97544683     0.97600
O268        O  0.78234950  0.11968152  0.95067145    -0.83000
O269        O  0.78418759  0.15522461  0.90072241    -0.85600
C270        C  0.74595817  0.14748211  0.89599100     1.02100
O271        O  0.72844599  0.16268382  0.91083240    -0.78400
O272        O  0.71651790  0.20681740  0.95143015    -0.78600
C273        C  0.70199372  0.18255832  0.97144781     1.02000
O274        O  0.78966712  0.26074315  0.98280626    -0.85900
O275        O  0.85492576  0.23959961  0.98503922    -0.83000
C276        C  0.87982757  0.22609210  0.97713809     0.97600
O277        O  0.86566390  0.19398046  0.96179888    -0.83000
O278        O  0.86200952  0.23311968  0.91546925    -0.85600
C279        C  0.84833751  0.25013986  0.89870999     1.02100
O280        O  0.80873979  0.23961656  0.89804121    -0.78400
O281        O  0.80022032  0.28014475  0.94129886    -0.78600
C282        C  0.79997245  0.28946767  0.96513322     1.02000
Cr283      Cr  0.79043473  0.20456477  0.98262944     1.93700
Cr284      Cr  0.82105140  0.17701571  0.93339262     1.93200
Cr285      Cr  0.76548585  0.22059256  0.92715546     1.39100
O286        O  0.79194295  0.20046861  0.94784336    -1.23600
O287        O  0.85572511  0.46193208  0.68972065    -0.85900
O288        O  0.94301222  0.52489951  0.69141354    -0.82900
C289        C  0.98069028  0.54716504  0.70090761     0.97600
O290        O  0.99578775  0.53053359  0.71721544    -0.83000
O291        O  0.95550940  0.52392094  0.76413459    -0.85600
C292        C  0.92385818  0.51144301  0.77950541     1.02100
O293        O  0.88951315  0.47563789  0.77605186    -0.78400
O294        O  0.84855580  0.47864993  0.72991220    -0.78600
C295        C  0.83777122  0.47490347  0.70600328     1.02000
O296        O  0.88088357  0.39596182  0.69108001    -0.85900
O297        O  0.96715735  0.45987629  0.68582850    -0.83000
C298        C  0.98412375  0.44282610  0.70004286     0.97600
O299        O  0.97961313  0.44160015  0.72463680    -0.83000
O300        O  0.94413080  0.43832105  0.77344308    -0.85600
C301        C  0.91005289  0.40150493  0.77499803     1.02100
O302        O  0.87761935  0.39292800  0.76076949    -0.78400
O303        O  0.83083605  0.39177335  0.71797429    -0.78600
C304        C  0.84398693  0.37437159  0.70147190     1.02000
Cr305      Cr  0.91190931  0.46073854  0.69215781     1.93700
Cr306      Cr  0.96497034  0.48190551  0.74343014     1.93200
Cr307      Cr  0.86546164  0.43688439  0.74487134     1.39100
O308        O  0.91428814  0.46034516  0.72699299    -1.23600
O309        O  0.81380952  0.54238241  0.97738939    -0.85900
O310        O  0.83808796  0.62685746  0.98983427    -0.82900
C311        C  0.87308704  0.64883538  0.97719693     0.97600
O312        O  0.87251282  0.65285803  0.95252340    -0.83000
O313        O  0.84442674  0.63138475  0.90091258    -0.85600
C314        C  0.85057635  0.59957345  0.89628465     1.02100
O315        O  0.82972981  0.56446640  0.90889251    -0.78400
O316        O  0.77532266  0.50350123  0.94403108    -0.78600
C317        C  0.80238080  0.51062048  0.96213875     1.02000
O318        O  0.72374746  0.52129371  0.97366956    -0.85900
O319        O  0.75002814  0.60814407  0.98161383    -0.83000
C320        C  0.76822327  0.64862668  0.97739594     0.97600
O321        O  0.80213568  0.66743145  0.96359005    -0.83000
O322        O  0.76784972  0.63728573  0.91432573    -0.85600
C323        C  0.75216531  0.61079591  0.89558397     1.02100
O324        O  0.76171942  0.58102691  0.89294230    -0.78400
O325        O  0.71071144  0.52684826  0.93208062    -0.78600
C326        C  0.69730842  0.51098233  0.95460043     1.02000
Cr327      Cr  0.78199054  0.57562421  0.97829854     1.93700
Cr328      Cr  0.81977294  0.64342882  0.93359745     1.93200
Cr329      Cr  0.77079935  0.54689863  0.92117993     1.39100
O330        O  0.79101694  0.58869366  0.94448467    -1.23600
O331        O  0.46647098  0.25728848  0.98372648    -0.85900
O332        O  0.37825199  0.22871207  0.98683599    -0.82900
C333        C  0.33960969  0.21398657  0.97903653     0.97600
O334        O  0.32399003  0.18447379  0.96171799    -0.83000
O335        O  0.36383476  0.22872362  0.91574883    -0.85600
C336        C  0.39424672  0.24899104  0.89960854     1.02100
O337        O  0.42578294  0.24186203  0.89878528    -0.78400
O338        O  0.46968411  0.28087752  0.94338507    -0.78600
C339        C  0.48136861  0.28828011  0.96703670     1.02000
O340        O  0.44683903  0.16711433  0.97981201    -0.85900
O341        O  0.35916616  0.13845456  0.98703781    -0.83000
C342        C  0.34076843  0.10771472  0.97057818     0.97600
O343        O  0.34143817  0.11598659  0.94639530    -0.83000
O344        O  0.37368638  0.15636926  0.89892480    -0.85600
C345        C  0.40612970  0.15104904  0.89539623     1.02100
O346        O  0.43860655  0.16919968  0.91032155    -0.78400
O347        O  0.49194771  0.21397975  0.95130816    -0.78600
C348        C  0.48220048  0.18314759  0.96738265     1.02000
Cr349      Cr  0.41206512  0.19792468  0.98187521     1.93700
Cr350      Cr  0.35451034  0.17321257  0.93201023     1.93200
Cr351      Cr  0.45291407  0.22443928  0.92748124     1.39100
O352        O  0.40636002  0.19855314  0.94723441    -1.23600
O353        O  0.59087992  0.14486445  0.68787716    -0.85900
O354        O  0.56954210  0.05957163  0.68273390    -0.82900
C355        C  0.56102916  0.02206878  0.69032805     0.97600
O356        O  0.53335514  0.00232186  0.70837320    -0.83000
O357        O  0.57503207  0.03920917  0.75573804    -0.85600
C358        C  0.59413007  0.06912365  0.77242016     1.02100
O359        O  0.58946010  0.10225224  0.77200643    -0.78400
O360        O  0.62235294  0.14735167  0.72550432    -0.78600
C361        C  0.62477808  0.15990475  0.70199602     1.02000
O362        O  0.50051264  0.11729440  0.69761793    -0.85900
O363        O  0.47872595  0.03201201  0.68598811    -0.83000
C364        C  0.44958883  0.01205690  0.70297231     0.97600
O365        O  0.45994751  0.01184574  0.72666037    -0.83000
O366        O  0.50137555  0.04414178  0.77350134    -0.85600
C367        C  0.49675619  0.07659498  0.77893277     1.02100
O368        O  0.51465035  0.11094966  0.76529827    -0.78400
O369        O  0.55140133  0.16480627  0.72322875    -0.78600
C370        C  0.51719369  0.15277555  0.71000503     1.02000
Cr371      Cr  0.53517115  0.08769559  0.69110350     1.93700
Cr372      Cr  0.51892996  0.02815696  0.73962291     1.93200
Cr373      Cr  0.56763630  0.12771216  0.74493625     1.39100
O374        O  0.54078278  0.08087037  0.72528786    -1.23600
O375        O  0.52764066  0.40306845  0.69632759    -0.85900
O376        O  0.46889782  0.43269479  0.69634603    -0.82900
C377        C  0.44467761  0.44435215  0.70755970     0.97600
O378        O  0.45870091  0.47151988  0.72628651    -0.83000
O379        O  0.47007049  0.43552835  0.77168555    -0.85600
C380        C  0.48668525  0.42054010  0.78765405     1.02100
O381        O  0.52410092  0.42615472  0.78356410    -0.78400
O382        O  0.51492388  0.38044935  0.73738136    -0.78600
C383        C  0.51484946  0.37237899  0.71324324     1.02000
O384        O  0.59763655  0.49425764  0.69736271    -0.85900
O385        O  0.53723620  0.52148950  0.69328227    -0.83000
C386        C  0.54977722  0.55278623  0.70920735     0.97600
O387        O  0.54539053  0.54563670  0.73356177    -0.83000
O388        O  0.55542163  0.51237498  0.77976401    -0.85600
C389        C  0.59372303  0.51807055  0.77870359     1.02100
O390        O  0.60238950  0.49513932  0.76372765    -0.78400
O391        O  0.59983708  0.44492960  0.72223210    -0.78600
C392        C  0.61831968  0.47664444  0.70659872     1.02000
Cr393      Cr  0.53278533  0.46288251  0.69846140     1.93700
Cr394      Cr  0.50896251  0.48918509  0.75127196     1.93200
Cr395      Cr  0.55805257  0.43838677  0.75045957     1.39100
O396        O  0.53251678  0.46325037  0.73332048    -1.23600
C397        C  0.50500442  0.32809705  0.70517490    -0.05800
C398        C  0.51851656  0.32166601  0.68051185    -0.05700
C399        C  0.51784844  0.28261977  0.67484228    -0.23900
C400        C  0.50370649  0.24928312  0.69373718     0.18300
C401        C  0.48715509  0.25421708  0.71789033     0.15600
C402        C  0.48757526  0.29337132  0.72334788    -0.18900
C403        C  0.47347344  0.22121260  0.73696932    -0.20700
C404        C  0.47944819  0.18542615  0.73304551    -0.13300
C405        C  0.49824106  0.18153510  0.70980309     0.03400
C406        C  0.50883538  0.21266472  0.68974736    -0.25400
H407        H  0.53200131  0.34775641  0.66612190     0.08500
H408        H  0.53040393  0.27936601  0.65615802     0.12100
H409        H  0.47679561  0.29773631  0.74239549     0.12000
H410        H  0.46064630  0.22436581  0.75557946     0.11800
H411        H  0.47201137  0.16214977  0.74889234     0.12300
H412        H  0.52446418  0.21031507  0.67208517     0.14200
C413        C  0.39419687  0.28077409  0.88077052    -0.05800
C414        C  0.36602131  0.26694767  0.85907700    -0.05700
C415        C  0.37475248  0.29439862  0.83714536    -0.23900
C416        C  0.41208874  0.33574150  0.83659900     0.18300
C417        C  0.43860238  0.35076346  0.85931129     0.15600
C418        C  0.42926862  0.32333390  0.88122537    -0.18900
C419        C  0.47623471  0.39150741  0.85900393    -0.20700
C420        C  0.48972873  0.41548259  0.83575470    -0.13300
C421        C  0.46547155  0.39967648  0.81256204     0.03400
C422        C  0.42545050  0.36078916  0.81326731    -0.25400
H423        H  0.33921457  0.23388728  0.85829733     0.08500
H424        H  0.35389312  0.28226833  0.82004462     0.12100
H425        H  0.45135547  0.33376937  0.89785279     0.12000
H426        H  0.49666385  0.40360000  0.87629942     0.11800
H427        H  0.52051223  0.44554245  0.83550667     0.12300
H428        H  0.40686376  0.34835016  0.79532301     0.14200
C429        C  0.40861294  0.12782005  0.87218855    -0.05800
C430        C  0.39117151  0.13166259  0.84812211    -0.05700
C431        C  0.40178641  0.11846930  0.82484986    -0.23900
C432        C  0.42955263  0.10079791  0.82541480     0.18300
C433        C  0.44438219  0.09359320  0.84981566     0.15600
C434        C  0.43393459  0.10732562  0.87303285    -0.18900
C435        C  0.47143323  0.07508053  0.85042994    -0.20700
C436        C  0.48581476  0.06625411  0.82702146    -0.13300
C437        C  0.47378046  0.07638379  0.80278936     0.03400
C438        C  0.44469494  0.09247983  0.80201783    -0.25400
H439        H  0.37173429  0.14754249  0.84709236     0.08500
H440        H  0.38979124  0.12380449  0.80632550     0.12100
H441        H  0.44717052  0.10396703  0.89162466     0.12000
H442        H  0.48287156  0.06909466  0.86897483     0.11800
H443        H  0.50857830  0.05420264  0.82785169     0.12300
H444        H  0.43536463  0.10019251  0.78323691     0.14200
C445        C  0.51619588  0.33261927  0.97388811    -0.05800
C446        C  0.54304386  0.33978583  0.99586596    -0.05700
C447        C  0.58223376  0.37901062  0.99839451    -0.23900
C448        C  0.59527499  0.41133421  0.97880657     0.18300
C449        C  0.56681986  0.40548403  0.95771845     0.15600
C450        C  0.52727950  0.36669879  0.95570072    -0.18900
C451        C  0.57958661  0.43709216  0.93786790    -0.20700
C452        C  0.62140667  0.47269210  0.93781341    -0.13300
C453        C  0.65110034  0.47773483  0.95777284     0.03400
C454        C  0.63719508  0.44791077  0.97892876    -0.25400
H455        H  0.53518260  0.31408126  0.01018064     0.08500
H456        H  0.60338504  0.38301023  0.01483375     0.12100
H457        H  0.50664037  0.36182234  0.93880915     0.12000
H458        H  0.55799795  0.43317748  0.92168264     0.11800
H459        H  0.63106638  0.49548697  0.92150044     0.12300
H460        H  0.65976457  0.45144999  0.99442694     0.14200
C461        C  0.62890286  0.54976050  0.79578743    -0.05800
C462        C  0.67197441  0.56505423  0.78799613    -0.05700
C463        C  0.70618955  0.58781964  0.80528822    -0.23900
C464        C  0.69800731  0.59515243  0.83097463     0.18300
C465        C  0.65522395  0.58286248  0.83873782     0.15600
C466        C  0.62072881  0.56070266  0.82083658    -0.18900
C467        C  0.64759418  0.58973497  0.86486503    -0.20700
C468        C  0.68113949  0.60439936  0.88352015    -0.13300
C469        C  0.72263408  0.61291760  0.87608204     0.03400
C470        C  0.73139334  0.61070887  0.84957367    -0.25400
H471        H  0.67914594  0.55754755  0.76885532     0.08500
H472        H  0.73885077  0.59731443  0.79901461     0.12100
H473        H  0.58760641  0.54896841  0.82707969     0.12000
H474        H  0.61515947  0.58078905  0.87125932     0.11800
H475        H  0.67376492  0.60526934  0.90403776     0.12300
H476        H  0.76338387  0.61679740  0.84392710     0.14200
C477        C  0.66606813  0.19596009  0.69206364    -0.05800
C478        C  0.66536523  0.22567036  0.67377762    -0.05700
C479        C  0.70284384  0.26520189  0.66871547    -0.23900
C480        C  0.74167035  0.27541164  0.68166053     0.18300
C481        C  0.74368818  0.24393746  0.69812259     0.15600
C482        C  0.70578556  0.20436286  0.70324402    -0.18900
C483        C  0.78276207  0.25407772  0.71081475    -0.20700
C484        C  0.81811440  0.29628842  0.70928146    -0.13300
C485        C  0.81482764  0.32864407  0.69496142     0.03400
C486        C  0.77733808  0.31765899  0.68022066    -0.25400
H487        H  0.63518228  0.21975716  0.66481956     0.08500
H488        H  0.70087246  0.28875753  0.65577319     0.12100
H489        H  0.70665538  0.18127970  0.71713196     0.12000
H490        H  0.78508058  0.23023196  0.72329941     0.11800
H491        H  0.84673724  0.30458858  0.72095881     0.12300
H492        H  0.77462766  0.34295417  0.66950082     0.14200
C493        C  0.66431280  0.49274629  0.70058933    -0.05800
C494        C  0.69596480  0.52806109  0.71484593    -0.05700
C495        C  0.73809898  0.53452088  0.71720129    -0.23900
C496        C  0.74939425  0.50627018  0.70469817     0.18300
C497        C  0.71892911  0.47364434  0.68787957     0.15600
C498        C  0.67635243  0.46665788  0.68624048    -0.18900
C499        C  0.73068469  0.44662812  0.67441445    -0.20700
C500        C  0.77099239  0.44972399  0.67900311    -0.13300
C501        C  0.79994211  0.47917326  0.69756597     0.03400
C502        C  0.78951911  0.50839078  0.70980040    -0.25400
H503        H  0.68716955  0.54867906  0.72567245     0.08500
H504        H  0.76116849  0.56031194  0.72974035     0.12100
H505        H  0.65189496  0.43918433  0.67530849     0.12000
H506        H  0.70806121  0.42192123  0.66114277     0.11800
H507        H  0.77831733  0.42694534  0.66928388     0.12300
H508        H  0.81183430  0.53153355  0.72391558     0.14200
C509        C  0.92728101  0.53594660  0.80336752    -0.05800
C510        C  0.93365252  0.52012590  0.82737551    -0.05700
C511        C  0.92590546  0.53461525  0.85105591    -0.23900
C512        C  0.91096030  0.56467968  0.85100230     0.18300
C513        C  0.90733539  0.58312135  0.82696469     0.15600
C514        C  0.91575612  0.56870566  0.80316302    -0.18900
C515        C  0.89217163  0.61309240  0.82710177    -0.20700
C516        C  0.87733612  0.62182986  0.85045179    -0.13300
C517        C  0.87738949  0.60065987  0.87393871     0.03400
C518        C  0.89623281  0.57379341  0.87430977    -0.25400
H519        H  0.94212468  0.49452861  0.82772196     0.08500
H520        H  0.92908530  0.52036086  0.86929589     0.12100
H521        H  0.91020401  0.58041412  0.78457743     0.12000
H522        H  0.88945852  0.62783243  0.80894662     0.11800
H523        H  0.86273951  0.64249299  0.84972319     0.12300
H524        H  0.89659732  0.55756320  0.89241257     0.14200
C525        C  0.65744901  0.17031232  0.97980349    -0.05800
C526        C  0.65046134  0.18580497  0.00356722    -0.05700
C527        C  0.61162387  0.18642517  0.00781152    -0.23900
C528        C  0.57917269  0.17160987  0.98832773     0.18300
C529        C  0.58485135  0.15300451  0.96523112     0.15600
C530        C  0.62377722  0.15248048  0.96117846    -0.18900
C531        C  0.55297053  0.13830536  0.94558749    -0.20700
C532        C  0.51743859  0.14493666  0.94778029    -0.13300
C533        C  0.51253652  0.16578430  0.96977322     0.03400
C534        C  0.54279439  0.17782957  0.99051878    -0.25400
H535        H  0.67627250  0.20047137  0.01795234     0.08500
H536        H  0.60798915  0.20068255  0.02572758     0.12100
H537        H  0.62920238  0.14103190  0.94262211     0.12000
H538        H  0.55671493  0.12381572  0.92779698     0.11800
H539        H  0.49491804  0.13602962  0.93149322     0.12300
H540        H  0.53978790  0.19483371  0.00731799     0.14200
C541        C  0.61867330  0.06511336  0.79474328    -0.05800
C542        C  0.59578222  0.04301345  0.81741983    -0.05700
C543        C  0.61657908  0.05163574  0.84192524    -0.23900
C544        C  0.66077925  0.08240802  0.84411763     0.18300
C545        C  0.68479714  0.10194941  0.82101789     0.15600
C546        C  0.66351109  0.09358836  0.79654554    -0.18900
C547        C  0.72923066  0.13157629  0.82297499    -0.20700
C548        C  0.74921300  0.14340749  0.84757734    -0.13300
C549        C  0.72507559  0.12715105  0.87075026     0.03400
C550        C  0.68087724  0.09580582  0.86895313    -0.25400
H551        H  0.56098827  0.02179627  0.81652129     0.08500
H552        H  0.59762820  0.03592558  0.85928899     0.12100
H553        H  0.68114307  0.11152233  0.77924049     0.12000
H554        H  0.74829351  0.14656282  0.80552824     0.11800
H555        H  0.78329774  0.16732019  0.84854357     0.12300
H556        H  0.66208248  0.08287508  0.88674272     0.14200
C557        C  0.80887120  0.33355812  0.97227469    -0.05800
C558        C  0.79411011  0.34071095  0.99630348    -0.05700
C559        C  0.79570070  0.38038942  0.00117417    -0.23900
C560        C  0.81202879  0.41344303  0.98206978     0.18300
C561        C  0.82989175  0.40752098  0.95870391     0.15600
C562        C  0.82848015  0.36782649  0.95407202    -0.18900
C563        C  0.84591929  0.44012880  0.93940913    -0.20700
C564        C  0.84054485  0.47636482  0.94206950    -0.13300
C565        C  0.81999058  0.48099823  0.96425111     0.03400
C566        C  0.80769805  0.45069842  0.98488290    -0.25400
H567        H  0.77917698  0.31483799  0.01075738     0.08500
H568        H  0.78221299  0.38438823  0.01928591     0.12100
H569        H  0.84049939  0.36281507  0.93563966     0.12000
H570        H  0.85996088  0.43625641  0.92148929     0.11800
H571        H  0.84980749  0.49942991  0.92594682     0.12300
H572        H  0.79113120  0.45396224  0.00179747     0.14200
C573        C  0.90638864  0.36800109  0.79411114    -0.05800
C574        C  0.87978764  0.32398700  0.78765216    -0.05700
C575        C  0.86847236  0.29142262  0.80652616    -0.23900
C576        C  0.88289349  0.30224274  0.83244674     0.18300
C577        C  0.91183623  0.34609547  0.83908890     0.15600
C578        C  0.92406575  0.37889818  0.81965438    -0.18900
C579        C  0.92531194  0.35632774  0.86540091    -0.20700
C580        C  0.90766491  0.32400119  0.88504665    -0.13300
C581        C  0.87685674  0.28103881  0.87853794     0.03400
C582        C  0.86606970  0.27020724  0.85211336    -0.25400
H583        H  0.86622379  0.31484538  0.76810970     0.08500
H584        H  0.84651516  0.25789295  0.80113056     0.12100
H585        H  0.94442114  0.41282664  0.82486562     0.12000
H586        H  0.94751897  0.38966782  0.87098906     0.11800
H587        H  0.91578092  0.33309852  0.90542415     0.12300
H588        H  0.84195657  0.23721089  0.84707437     0.14200
C589        C  0.67326745  0.91404480  0.01773264    -0.05800
C590        C  0.66632032  0.91510180  0.99053552    -0.05700
C591        C  0.68728083  0.95432509  0.97636456    -0.23900
C592        C  0.71545394  0.99340423  0.98910434     0.18300
C593        C  0.72306361  0.99257027  0.01635768     0.15600
C594        C  0.70221127  0.95308167  0.03040126    -0.18900
C595        C  0.75077522  0.03141767  0.02929918    -0.20700
C596        C  0.76975075  0.07091910  0.01562710    -0.13300
C597        C  0.76186019  0.07258843  0.98860909     0.03400
C598        C  0.73526797  0.03340031  0.97529475    -0.25400
H599        H  0.64439121  0.88559179  0.98019115     0.08500
H600        H  0.68098013  0.95415982  0.95549123     0.12100
H601        H  0.70801482  0.95296262  0.05133743     0.12000
H602        H  0.75712243  0.03140052  0.05015972     0.11800
H603        H  0.79027441  0.10044540  0.02639511     0.12300
H604        H  0.72868775  0.03419359  0.95452553     0.14200
C605        C  0.65608334  0.73423255  0.02217243    -0.05800
C606        C  0.62803796  0.69080235  0.01484170    -0.05700
C607        C  0.64445219  0.66501042  0.00517853    -0.23900
C608        C  0.68922226  0.68239928  0.00235188     0.18300
C609        C  0.71767685  0.72632459  0.00913736     0.15600
C610        C  0.70097702  0.75183247  0.01926194    -0.18900
C611        C  0.76238351  0.74407521  0.00558433    -0.20700
C612        C  0.77870703  0.71859159  0.99528096    -0.13300
C613        C  0.75072777  0.67477491  0.98890087     0.03400
C614        C  0.70597491  0.65669410  0.99264455    -0.25400
H615        H  0.59326212  0.67641050  0.01704719     0.08500
H616        H  0.62219902  0.63156858  0.99994777     0.12100
H617        H  0.72280271  0.78530634  0.02468828     0.12000
H618        H  0.78461359  0.77764536  0.01055637     0.11800
H619        H  0.81337942  0.73307260  0.99248389     0.12300
H620        H  0.68424302  0.62310441  0.98738245     0.14200
C621        C  0.61562338  0.72437395  0.13713037    -0.05800
C622        C  0.60214605  0.68153175  0.12938503    -0.05700
C623        C  0.58753245  0.64806485  0.14813053    -0.23900
C624        C  0.58623162  0.65720958  0.17478315     0.18300
C625        C  0.60320520  0.70091087  0.18284715     0.15600
C626        C  0.61795127  0.73419445  0.16393903    -0.18900
C627        C  0.60162085  0.71020361  0.20941251    -0.20700
C628        C  0.58051974  0.67633255  0.22752659    -0.13300
C629        C  0.56114323  0.63294970  0.21931828     0.03400
C630        C  0.56520198  0.62337954  0.19316938    -0.25400
H631        H  0.59925940  0.67338664  0.10872812     0.08500
H632        H  0.57473794  0.61479417  0.14162505     0.12100
H633        H  0.62770507  0.76723266  0.16984929     0.12000
H634        H  0.61450537  0.74350454  0.21589123     0.11800
H635        H  0.57689990  0.68392570  0.24760565     0.12300
H636        H  0.54944708  0.58972434  0.18684917     0.14200
C637        C  0.92581080  0.24717696  0.98567920    -0.05800
C638        C  0.95752333  0.24978329  0.96818134    -0.05700
C639        C  0.00100346  0.26862689  0.97585877    -0.23900
C640        C  0.01355770  0.28424223  0.00146792     0.18300
C641        C  0.98185266  0.28140826  0.01934169     0.15600
C642        C  0.93835496  0.26371445  0.01119331    -0.18900
C643        C  0.99409388  0.29565934  0.04519394    -0.20700
C644        C  0.03708302  0.31218701  0.05332128    -0.13300
C645        C  0.06907240  0.31571442  0.03568390     0.03400
C646        C  0.05709548  0.30207886  0.00960244    -0.25400
H647        H  0.94864094  0.23746818  0.94837047     0.08500
H648        H  0.02469267  0.27038432  0.96186967     0.12100
H649        H  0.91409839  0.26151959  0.02489591     0.12000
H650        H  0.97035781  0.29371728  0.05921070     0.11800
H651        H  0.04550539  0.32302335  0.07343224     0.12300
H652        H  0.08141045  0.30462559  0.99582963     0.14200
C653        C  0.25372177  0.32437490  0.02978279    -0.05800
C654        C  0.29916015  0.34945118  0.02988110    -0.05700
C655        C  0.32475891  0.33224118  0.02097502    -0.23900
C656        C  0.30547479  0.28981314  0.01104052     0.18300
C657        C  0.25973537  0.26433190  0.01030296     0.15600
C658        C  0.23403517  0.28144595  0.02018633    -0.18900
C659        C  0.24070030  0.22252156  0.99931151    -0.20700
C660        C  0.26661127  0.20629858  0.98914934    -0.13300
C661        C  0.31215231  0.23103649  0.99026592     0.03400
C662        C  0.33127464  0.27281999  0.00146090    -0.25400
H663        H  0.31499239  0.38251513  0.03720515     0.08500
H664        H  0.35970081  0.35236650  0.02156772     0.12100
H665        H  0.19901051  0.26202655  0.01971871     0.12000
H666        H  0.20577508  0.20253100  0.99830969     0.11800
H667        H  0.25094256  0.17410670  0.98056916     0.12300
H668        H  0.36627137  0.29258776  0.00211052     0.14200
C669        C  0.47656240  0.65445493  0.06138486    -0.05800
C670        C  0.47152747  0.62515987  0.08174419    -0.05700
C671        C  0.43562681  0.58339736  0.08228329    -0.23900
C672        C  0.40392308  0.57042914  0.06260980     0.18300
C673        C  0.40996007  0.59850416  0.04114647     0.15600
C674        C  0.44662665  0.64020384  0.04047251    -0.18900
C675        C  0.37787295  0.58540770  0.02161122    -0.20700
C676        C  0.33878517  0.54633095  0.02437781    -0.13300
C677        C  0.33146616  0.51979506  0.04661035     0.03400
C678        C  0.36503905  0.53106960  0.06500018    -0.25400
H679        H  0.49451995  0.63509883  0.09786217     0.08500
H680        H  0.43164813  0.56205354  0.09871143     0.12100
H681        H  0.45029140  0.66238980  0.02459980     0.12000
H682        H  0.38208417  0.60635464  0.00493148     0.11800
H683        H  0.31337461  0.53821334  0.00994198     0.12300
H684        H  0.35989541  0.51053306  0.08207126     0.14200
C685        C  0.27872155  0.39653076  0.14098607    -0.05800
C686        C  0.26031494  0.38087210  0.16577244    -0.05700
C687        C  0.28620507  0.39312560  0.18835847    -0.23900
C688        C  0.33094411  0.42173019  0.18654076     0.18300
C689        C  0.35027830  0.43524137  0.16148952     0.15600
C690        C  0.32394250  0.42257858  0.13880877    -0.18900
C691        C  0.39514970  0.46360114  0.15976508    -0.20700
C692        C  0.42010124  0.48052987  0.18256320    -0.13300
C693        C  0.40048921  0.46988667  0.20741467     0.03400
C694        C  0.35611460  0.43940200  0.20931261    -0.25400
H695        H  0.22546354  0.36158962  0.16781372     0.08500
H696        H  0.27085441  0.38220052  0.20738290     0.12100
H697        H  0.33815198  0.43565041  0.11974243     0.12000
H698        H  0.41065279  0.47418573  0.14075655     0.11800
H699        H  0.45418253  0.50420855  0.18071240     0.12300
H700        H  0.34082984  0.43106553  0.22849217     0.14200
C701        C  0.19083775  0.51944727  0.29537958    -0.05800
C702        C  0.20357461  0.51342148  0.27041557    -0.05700
C703        C  0.23935029  0.50783024  0.26740792    -0.23900
C704        C  0.26351594  0.50858905  0.28934557     0.18300
C705        C  0.24961395  0.51145960  0.31487888     0.15600
C706        C  0.21264684  0.51639185  0.31783723    -0.18900
C707        C  0.27482429  0.51241282  0.33661630    -0.20700
C708        C  0.31490069  0.51415843  0.33282816    -0.13300
C709        C  0.32994871  0.51477325  0.30729195     0.03400
C710        C  0.30309723  0.50981424  0.28581573    -0.25400
H711        H  0.18690254  0.51518539  0.25291613     0.08500
H712        H  0.24945287  0.50527667  0.24777515     0.12100
H713        H  0.20309864  0.52122180  0.33713332     0.12000
H714        H  0.26474943  0.51422139  0.35637555     0.11800
H715        H  0.33534798  0.51808684  0.34965539     0.12300
H716        H  0.31454751  0.51000669  0.26608165     0.14200
C717        C  0.06538464  0.45739630  0.21085196    -0.05800
C718        C  0.05189845  0.46534270  0.18646202    -0.05700
C719        C  0.06031380  0.44970926  0.16345589    -0.23900
C720        C  0.08174787  0.42537056  0.16465137     0.18300
C721        C  0.09175045  0.41377796  0.18935319     0.15600
C722        C  0.08392293  0.43033899  0.21237409    -0.18900
C723        C  0.11223103  0.38848289  0.19044205    -0.20700
C724        C  0.12631178  0.37829048  0.16735229    -0.13300
C725        C  0.12047210  0.39369282  0.14299064     0.03400
C726        C  0.09625726  0.41530643  0.14163091    -0.25400
H727        H  0.03786719  0.48646444  0.18502776     0.08500
H728        H  0.05207573  0.45852739  0.14469667     0.12100
H729        H  0.09433606  0.42424712  0.23125890     0.12000
H730        H  0.11951818  0.37870330  0.20917796     0.11800
H731        H  0.14487856  0.36150908  0.16875925     0.12300
H732        H  0.09131872  0.42687182  0.12280461     0.14200
C733        C  0.07239660  0.75387947  0.01966243    -0.05800
C734        C  0.07133111  0.76217336  0.99267687    -0.05700
C735        C  0.03197099  0.74444042  0.97913148    -0.23900
C736        C  0.99303948  0.71770042  0.99227771     0.18300
C737        C  0.99372528  0.70975431  0.01950145     0.15600
C738        C  0.03331490  0.72818635  0.03305359    -0.18900
C739        C  0.95487404  0.68275450  0.03261850    -0.20700
C740        C  0.91571012  0.66330832  0.01884712    -0.13300
C741        C  0.91464574  0.67055695  0.99170193     0.03400
C742        C  0.95354210  0.69817290  0.97857553    -0.25400
H743        H  0.10102582  0.78209081  0.98195568     0.08500
H744        H  0.03205475  0.75103153  0.95829123     0.12100
H745        H  0.03376659  0.72138335  0.05383547     0.12000
H746        H  0.95481240  0.67627794  0.05347491     0.11800
H747        H  0.88624516  0.64218946  0.02945947     0.12300
H748        H  0.95319722  0.70414394  0.95766876     0.14200
C749        C  0.24234370  0.91746536  0.02930227    -0.05800
C750        C  0.24496390  0.94959088  0.04650564    -0.05700
C751        C  0.26500233  0.99334994  0.03864510    -0.23900
C752        C  0.28193597  0.00567925  0.01321930     0.18300
C753        C  0.27823948  0.97334455  0.99551355     0.15600
C754        C  0.25914711  0.92964850  0.00378853    -0.18900
C755        C  0.29367740  0.98526453  0.96981524    -0.20700
C756        C  0.31311811  0.02879664  0.96178664    -0.13300
C757        C  0.31831562  0.06154097  0.97940179     0.03400
C758        C  0.30248305  0.04966435  0.00516885    -0.25400
H759        H  0.23227657  0.94092401  0.06625138     0.08500
H760        H  0.26721829  0.01756746  0.05247257     0.12100
H761        H  0.25677983  0.90497771  0.99025319     0.12000
H762        H  0.29079368  0.96088779  0.95588909     0.11800
H763        H  0.32498981  0.03700152  0.94184969     0.12300
H764        H  0.30580759  0.07454253  0.01884285     0.14200
C765        C  0.17336435  0.65168979  0.02694718    -0.05800
C766        C  0.19958811  0.64815263  0.00772927    -0.05700
C767        C  0.20093750  0.60937771  0.00498068    -0.23900
C768        C  0.17654020  0.57380492  0.02173776     0.18300
C769        C  0.14751351  0.57605194  0.03974855     0.15600
C770        C  0.14592368  0.61491685  0.04208662    -0.18900
C771        C  0.12367529  0.54093088  0.05686611    -0.20700
C772        C  0.13133850  0.50569156  0.05779260    -0.13300
C773        C  0.16217260  0.50451981  0.04125012     0.03400
C774        C  0.18346319  0.53777324  0.02248513    -0.25400
H775        H  0.22166696  0.67648789  0.99633910     0.08500
H776        H  0.22328559  0.60828052  0.99101661     0.12100
H777        H  0.12641578  0.61789925  0.05737700     0.12000
H778        H  0.10118898  0.54201692  0.07072895     0.11800
H779        H  0.11515388  0.48060013  0.07258629     0.12300
H780        H  0.20796850  0.53736276  0.01006397     0.14200
C781        C  0.04676652  0.60669591  0.21240387    -0.05800
C782        C  0.05905253  0.65014850  0.21793121    -0.05700
C783        C  0.07230622  0.68113391  0.19758693    -0.23900
C784        C  0.07420175  0.66902993  0.17159031     0.18300
C785        C  0.05834758  0.62457668  0.16581607     0.15600
C786        C  0.04401995  0.59370552  0.18618645    -0.18900
C787        C  0.06114650  0.61216035  0.14018538    -0.20700
C788        C  0.08305529  0.64372641  0.12093969    -0.13300
C789        C  0.10172742  0.68822405  0.12677253     0.03400
C790        C  0.09517027  0.70069770  0.15179768    -0.25400
H791        H  0.06232261  0.66088267  0.23810749     0.08500
H792        H  0.08421110  0.71497277  0.20244542     0.12100
H793        H  0.03534317  0.56031248  0.18196736     0.12000
H794        H  0.04890477  0.57821136  0.13544111     0.11800
H795        H  0.08730671  0.63338213  0.10173889     0.12300
H796        H  0.10973744  0.73494856  0.15653298     0.14200
C797        C  0.33327062  0.80913160  0.04447555    -0.05800
C798        C  0.34628790  0.80393328  0.01934679    -0.05700
C799        C  0.38759218  0.80917900  0.01545903    -0.23900
C800        C  0.41627866  0.81933491  0.03670758     0.18300
C801        C  0.40435220  0.82759356  0.06159184     0.15600
C802        C  0.36329434  0.82303804  0.06519842    -0.18900
C803        C  0.43232904  0.83704195  0.08305082    -0.20700
C804        C  0.46992094  0.83436456  0.08048818    -0.13300
C805        C  0.48053275  0.82309661  0.05637564     0.03400
C806        C  0.45498538  0.81790033  0.03410894    -0.25400
H807        H  0.32383942  0.79371963  0.00294316     0.08500
H808        H  0.39620238  0.80310316  0.99622066     0.12100
H809        H  0.35385330  0.82770044  0.08456628     0.12000
H810        H  0.42378614  0.84365556  0.10217130     0.11800
H811        H  0.48942379  0.83833304  0.09784058     0.12300
H812        H  0.46284350  0.80851841  0.01562800     0.14200
C813        C  0.50455672  0.82994875  0.29533420    -0.05800
C814        C  0.52850142  0.82490641  0.27524305    -0.05700
C815        C  0.53292975  0.78779562  0.27431971    -0.23900
C816        C  0.51243386  0.75470094  0.29316315     0.18300
C817        C  0.49055317  0.76075847  0.31442691     0.15600
C818        C  0.48717360  0.79876047  0.31554436    -0.18900
C819        C  0.46950875  0.72720966  0.33298234    -0.20700
C820        C  0.46744175  0.68694328  0.32943595    -0.13300
C821        C  0.48645443  0.67968077  0.30732993     0.03400
C822        C  0.51059734  0.71443199  0.28991709    -0.25400
H823        H  0.54124535  0.84832876  0.25925062     0.08500
H824        H  0.54987268  0.78369740  0.25794287     0.12100
H825        H  0.46767817  0.80213508  0.33064770     0.12000
H826        H  0.45279368  0.73133474  0.34946940     0.11800
H827        H  0.44880339  0.66073025  0.34316882     0.12300
H828        H  0.52576479  0.70935639  0.27293174     0.14200
C829        C  0.61507277  0.88897880  0.13581630    -0.05800
C830        C  0.62973168  0.88465155  0.16073099    -0.05700
C831        C  0.61889168  0.90023966  0.18297179    -0.23900
C832        C  0.59337142  0.92036878  0.18044047     0.18300
C833        C  0.58277390  0.92913384  0.15512913     0.15600
C834        C  0.59388346  0.91351418  0.13296377    -0.18900
C835        C  0.55770960  0.94969429  0.15251405    -0.20700
C836        C  0.53990366  0.95782499  0.17470148    -0.13300
C837        C  0.54658756  0.94508833  0.19968668     0.03400
C838        C  0.57506126  0.92832714  0.20261586    -0.25400
H839        H  0.64567337  0.86541889  0.16330404     0.08500
H840        H  0.62775389  0.89375373  0.20221677     0.12100
H841        H  0.58237169  0.91671778  0.11372569     0.12000
H842        H  0.54968477  0.95702097  0.13325093     0.11800
H843        H  0.51802865  0.97074221  0.17211332     0.12300
H844        H  0.58049972  0.91873892  0.22194584     0.14200
C845        C  0.33572410  0.81527009  0.29829691    -0.05800
C846        C  0.33066144  0.78991754  0.32083529    -0.05700
C847        C  0.29127237  0.75211535  0.32583549    -0.23900
C848        C  0.25634313  0.73912717  0.30836233     0.18300
C849        C  0.26036650  0.76606401  0.28660724     0.15600
C850        C  0.29987231  0.80393988  0.28177954    -0.18900
C851        C  0.22564465  0.75341895  0.26912158    -0.20700
C852        C  0.18865351  0.71278860  0.27186688    -0.13300
C853        C  0.18563467  0.68410902  0.29216996     0.03400
C854        C  0.21864674  0.69841879  0.31122927    -0.25400
H855        H  0.35780653  0.79808528  0.33391263     0.08500
H856        H  0.28874816  0.73212158  0.34271142     0.12100
H857        H  0.30325332  0.82348899  0.26449647     0.12000
H858        H  0.22797370  0.77392217  0.25255468     0.11800
H859        H  0.16335790  0.70279076  0.25713258     0.12300
H860        H  0.21664969  0.67664564  0.32696338     0.14200
C861        C  0.25571296  0.84939456  0.14243359    -0.05800
C862        C  0.24335311  0.82724526  0.16661008    -0.05700
C863        C  0.26883556  0.84475817  0.18896944    -0.23900
C864        C  0.30781110  0.88424020  0.18737977     0.18300
C865        C  0.31963190  0.90807343  0.16348317     0.15600
C866        C  0.29291362  0.89078772  0.14115046    -0.18900
C867        C  0.35951849  0.94696914  0.16194981    -0.20700
C868        C  0.38867584  0.96018327  0.18315039    -0.13300
C869        C  0.37786203  0.93519159  0.20629927     0.03400
C870        C  0.33675448  0.89829799  0.20864895    -0.25400
H871        H  0.21463417  0.79545547  0.16793858     0.08500
H872        H  0.25924749  0.82620311  0.20717342     0.12100
H873        H  0.30278569  0.90775281  0.12242388     0.12000
H874        H  0.36929832  0.96568036  0.14381821     0.11800
H875        H  0.42072817  0.98809261  0.18082178     0.12300
H876        H  0.32883966  0.87841615  0.22632440     0.14200
C877        C  0.64781417  0.73825777  0.64529791    -0.05800
C878        C  0.62683162  0.70370984  0.62742675    -0.05700
C879        C  0.60198073  0.66075169  0.63631071    -0.23900
C880        C  0.59762155  0.65129455  0.66327345     0.18300
C881        C  0.61777889  0.68573967  0.68145672     0.15600
C882        C  0.64261615  0.72891082  0.67239238    -0.18900
C883        C  0.61333714  0.67633767  0.70841743    -0.20700
C884        C  0.59015076  0.63324681  0.71729508    -0.13300
C885        C  0.57084927  0.59850242  0.69942425     0.03400
C886        C  0.57424556  0.60796145  0.67233937    -0.25400
H887        H  0.62986667  0.70981130  0.60646177     0.08500
H888        H  0.58659273  0.63484434  0.62204577     0.12100
H889        H  0.65835078  0.75511218  0.68645342     0.12000
H890        H  0.62842769  0.70229231  0.72267796     0.11800
H891        H  0.58822636  0.62710740  0.73825005     0.12300
H892        H  0.55950605  0.58162224  0.65829163     0.14200
C893        C  0.64486119  0.90596964  0.64689102    -0.05800
C894        C  0.60135574  0.87780811  0.65354605    -0.05700
C895        C  0.57560781  0.89447035  0.66330566    -0.23900
C896        C  0.59270465  0.93963146  0.66588958     0.18300
C897        C  0.63586541  0.96808308  0.65790164     0.15600
C898        C  0.66176943  0.95109233  0.64889884    -0.18900
C899        C  0.65268886  0.01314960  0.65930132    -0.20700
C900        C  0.62750508  0.03005027  0.66914831    -0.13300
C901        C  0.58521803  0.00235199  0.67831404     0.03400
C902        C  0.56777462  0.95694608  0.67648770    -0.25400
H903        H  0.58774520  0.84288693  0.65198211     0.08500
H904        H  0.54248775  0.87206880  0.66899178     0.12100
H905        H  0.69513868  0.97297408  0.64333646     0.12000
H906        H  0.68551695  0.03539093  0.65299334     0.11800
H907        H  0.64172530  0.06509611  0.67034279     0.12300
H908        H  0.53503090  0.93530472  0.68318928     0.14200
C909        C  0.59235577  0.58574863  0.32988032    -0.05800
C910        C  0.59787215  0.60287010  0.35532151    -0.05700
C911        C  0.63875892  0.62362744  0.36712062    -0.23900
C912        C  0.67506820  0.62858597  0.35345226     0.18300
C913        C  0.66991905  0.61118644  0.32792408     0.15600
C914        C  0.62843449  0.58915092  0.31648829    -0.18900
C915        C  0.70655731  0.61747169  0.31398715    -0.20700
C916        C  0.74797679  0.64178330  0.32492008    -0.13300
C917        C  0.75336699  0.65937660  0.35022095     0.03400
C918        C  0.71658347  0.65188547  0.36455821    -0.25400
H919        H  0.57050680  0.60042453  0.36603597     0.08500
H920        H  0.64214083  0.63680829  0.38671809     0.12100
H921        H  0.62452032  0.57638881  0.29672604     0.12000
H922        H  0.70327311  0.60443045  0.29436169     0.11800
H923        H  0.77581793  0.64697270  0.31356475     0.12300
H924        H  0.72038380  0.66566245  0.38402991     0.14200
C925        C  0.99206124  0.58003962  0.32848278    -0.05800
C926        C  0.94675439  0.55412693  0.33035445    -0.05700
C927        C  0.92160652  0.57183155  0.33923975    -0.23900
C928        C  0.94128982  0.61599788  0.34584257     0.18300
C929        C  0.98692673  0.64211724  0.34431345     0.15600
C930        C  0.01201979  0.62378830  0.33614963    -0.18900
C931        C  0.00665925  0.68658915  0.34998077    -0.20700
C932        C  0.98136167  0.70536296  0.35624343    -0.13300
C933        C  0.93607144  0.67981720  0.35764281     0.03400
C934        C  0.91613001  0.63489060  0.35305793    -0.25400
H935        H  0.93068302  0.52022218  0.32462155     0.08500
H936        H  0.88673250  0.55131886  0.34023086     0.12100
H937        H  0.04687524  0.64412511  0.33452916     0.12000
H938        H  0.04153463  0.70705349  0.34890408     0.11800
H939        H  0.99720900  0.74003123  0.36001796     0.12300
H940        H  0.88113622  0.61518917  0.35398414     0.14200
C941        C  0.79890838  0.76656618  0.45440784    -0.05800
C942        C  0.77211787  0.78468402  0.44929352    -0.05700
C943        C  0.75290137  0.79480910  0.46994999    -0.23900
C944        C  0.76160915  0.78850657  0.49606324     0.18300
C945        C  0.78798524  0.76955605  0.50127618     0.15600
C946        C  0.80546311  0.75762803  0.48040395    -0.18900
C947        C  0.79883932  0.76547246  0.52724820    -0.20700
C948        C  0.78554690  0.78199189  0.54778734    -0.13300
C949        C  0.76009973  0.80167151  0.54282227     0.03400
C950        C  0.74687641  0.80346348  0.51697906    -0.25400
H951        H  0.76707942  0.79213444  0.42931760     0.08500
H952        H  0.73304872  0.80952273  0.46554764     0.12100
H953        H  0.82699726  0.74467985  0.48444132     0.12000
H954        H  0.81929819  0.75140320  0.53156608     0.11800
H955        H  0.79630451  0.78061800  0.56757770     0.12300
H956        H  0.72809691  0.81950841  0.51297665     0.14200
C957        C  0.35465651  0.26969097  0.36629042    -0.05800
C958        C  0.37939288  0.30179747  0.38482340    -0.05700
C959        C  0.40352977  0.34554310  0.37715208    -0.23900
C960        C  0.40394822  0.35741795  0.35071167     0.18300
C961        C  0.38053895  0.32471429  0.33189749     0.15600
C962        C  0.35561076  0.28125743  0.33985494    -0.18900
C963        C  0.38193753  0.33591581  0.30538233    -0.20700
C964        C  0.40526410  0.37933260  0.29756129    -0.13300
C965        C  0.42719128  0.41247149  0.31610167     0.03400
C966        C  0.42685069  0.40130865  0.34273438    -0.25400
H967        H  0.37906608  0.29314014  0.40533924     0.08500
H968        H  0.42153051  0.36995975  0.39181546     0.12100
H969        H  0.33714553  0.25634531  0.32550004     0.12000
H970        H  0.36458731  0.31120039  0.29074972     0.11800
H971        H  0.40506004  0.38705837  0.27691971     0.12300
H972        H  0.44406560  0.42654257  0.35711359     0.14200
C973        C  0.42350727  0.01352142  0.32234607    -0.05800
C974        C  0.40884437  0.99978183  0.34813924    -0.05700
C975        C  0.39053096  0.01988369  0.36274576    -0.23900
C976        C  0.38564372  0.05369390  0.35171302     0.18300
C977        C  0.40038158  0.06807630  0.32584080     0.15600
C978        C  0.41986164  0.04836902  0.31143601    -0.18900
C979        C  0.39429602  0.10112252  0.31462901    -0.20700
C980        C  0.37277107  0.11876880  0.32859403    -0.13300
C981        C  0.35770554  0.10445436  0.35426254     0.03400
C982        C  0.36510932  0.07242413  0.36588704    -0.25400
H983        H  0.41160245  0.97331225  0.35712520     0.08500
H984        H  0.37944984  0.00840795  0.38251296     0.12100
H985        H  0.43082250  0.05912784  0.29154971     0.12000
H986        H  0.40530043  0.11263861  0.29486001     0.11800
H987        H  0.36766248  0.14354996  0.31921681     0.12300
H988        H  0.35334034  0.06081756  0.38554949     0.14200
C989        C  0.01157430  0.87530381  0.35782454    -0.05800
C990        C  0.01551056  0.90304973  0.33680939    -0.05700
C991        C  0.05473212  0.94111696  0.33216626    -0.23900
C992        C  0.09072629  0.95171999  0.34830257     0.18300
C993        C  0.08799193  0.92212606  0.36815067     0.15600
C994        C  0.04835559  0.88417795  0.37285998    -0.18900
C995        C  0.12404307  0.93258390  0.38419642    -0.20700
C996        C  0.16087283  0.97363865  0.38227371    -0.13300
C997        C  0.16228972  0.00455730  0.36422335     0.03400
C998        C  0.12806235  0.99284075  0.34640949    -0.25400
H999        H  0.98750760  0.89672392  0.32499182     0.08500
H1000       H  0.05631300  0.96322559  0.31675510     0.12100
H1001       H  0.04556631  0.86264992  0.38897844     0.12000
H1002       H  0.12269188  0.91022711  0.39937544     0.11800
H1003       H  0.18676313  0.98264527  0.39643884     0.12300
H1004       H  0.12872277  0.01711429  0.33291658     0.14200
C1005       C  0.07674535  0.73815220  0.64460146    -0.05800
C1006       C  0.04687032  0.70706982  0.62710006    -0.05700
C1007       C  0.02220969  0.66350807  0.63464231    -0.23900
C1008       C  0.02741993  0.65008719  0.65971059     0.18300
C1009       C  0.05833622  0.68077760  0.67721773     0.15600
C1010       C  0.08248970  0.72474284  0.66966220    -0.18900
C1011       C  0.06432569  0.66694755  0.70202232    -0.20700
C1012       C  0.03957329  0.62325113  0.70950900    -0.13300
C1013       C  0.00791011  0.59286965  0.69251967     0.03400
C1014       C  0.00206367  0.60651145  0.66758717    -0.25400
H1015       H  0.04175355  0.71665615  0.60771339     0.08500
H1016       H  0.99887934  0.64038460  0.62092620     0.12100
H1017       H  0.10570181  0.74841797  0.68320709     0.12000
H1018       H  0.08802017  0.68990794  0.71564358     0.11800
H1019       H  0.04451899  0.61335174  0.72884123     0.12300
H1020       H  0.97804666  0.58313797  0.65424923     0.14200
C1021       C  0.40303715  0.98971250  0.69537918    -0.05800
C1022       C  0.37226310  0.98772270  0.71340054    -0.05700
C1023       C  0.32841119  0.96837407  0.70659703    -0.23900
C1024       C  0.31411932  0.94962146  0.68179160     0.18300
C1025       C  0.34451794  0.95068056  0.66355854     0.15600
C1026       C  0.38893817  0.97140657  0.67028659    -0.18900
C1027       C  0.32980675  0.93079230  0.63900956    -0.20700
C1028       C  0.28558075  0.91017935  0.63260498    -0.13300
C1029       C  0.25518286  0.90968051  0.65040465     0.03400
C1030       C  0.26991274  0.92974161  0.67499038    -0.25400
H1031       H  0.38231518  0.00199730  0.73270260     0.08500
H1032       H  0.30560667  0.96789146  0.72083411     0.12100
H1033       H  0.41235689  0.97266990  0.65623190     0.12000
H1034       H  0.35250456  0.93113132  0.62474797     0.11800
H1035       H  0.27525904  0.89547012  0.61343574     0.12300
H1036       H  0.24690297  0.92964000  0.68893868     0.14200
C1037       C  0.99068612  0.84622117  0.64706096    -0.05800
C1038       C  0.96021355  0.81255160  0.63121261    -0.05700
C1039       C  0.91760381  0.80489804  0.62926524    -0.23900
C1040       C  0.90481864  0.83071385  0.64330903     0.18300
C1041       C  0.93451775  0.86246648  0.66086904     0.15600
C1042       C  0.97734901  0.87020338  0.66247643    -0.18900
C1043       C  0.92186638  0.88823812  0.67499953    -0.20700
C1044       C  0.88155503  0.88507490  0.67026933    -0.13300
C1045       C  0.85313256  0.85593397  0.65152236     0.03400
C1046       C  0.86421743  0.82772175  0.63868487    -0.25400
H1047       H  0.97020279  0.79417227  0.61898170     0.08500
H1048       H  0.89532589  0.78027909  0.61579349     0.12100
H1049       H  0.00105374  0.89674142  0.67437841     0.12000
H1050       H  0.94410869  0.91259657  0.68860929     0.11800
H1051       H  0.87381997  0.90764055  0.67987620     0.12300
H1052       H  0.84273228  0.80591330  0.62371893     0.14200
C1053       C  0.20700848  0.95937962  0.54834813    -0.05800
C1054       C  0.23178182  0.00360712  0.55453887    -0.05700
C1055       C  0.25313107  0.03433509  0.53473051    -0.23900
C1056       C  0.24895745  0.02107477  0.50847764     0.18300
C1057       C  0.22519412  0.97620630  0.50232577     0.15600
C1058       C  0.20481621  0.94554274  0.52243104    -0.18900
C1059       C  0.21943845  0.96306599  0.47602466    -0.20700
C1060       C  0.23397942  0.99419386  0.45594988    -0.13300
C1061       C  0.25565593  0.03873175  0.46193115     0.03400
C1062       C  0.26504438  0.05202937  0.48817237    -0.25400
H1063       H  0.23296788  0.01447052  0.57452006     0.08500
H1064       H  0.27092178  0.06856219  0.53975534     0.12100
H1065       H  0.18482935  0.91130766  0.51776076     0.12000
H1066       H  0.20140870  0.92885629  0.47098433     0.11800
H1067       H  0.22655220  0.98354513  0.43577351     0.12300
H1068       H  0.28102061  0.08643583  0.49282693     0.14200
C1069       C  0.03307203  0.80783499  0.54777588    -0.05800
C1070       C  0.98983510  0.79725391  0.55218318    -0.05700
C1071       C  0.95952496  0.78174908  0.53191381    -0.23900
C1072       C  0.97184774  0.77669302  0.50677201     0.18300
C1073       C  0.01429406  0.78397214  0.50240231     0.15600
C1074       C  0.04468100  0.79915548  0.52310640    -0.18900
C1075       C  0.02608615  0.77844991  0.47702937    -0.20700
C1076       C  0.99699082  0.76838757  0.45601548    -0.13300
C1077       C  0.95597858  0.76398327  0.46020063     0.03400
C1078       C  0.94314815  0.76693381  0.48565868    -0.25400
H1079       H  0.97987618  0.80298748  0.57105822     0.08500
H1080       H  0.92688551  0.77568082  0.53564263     0.12100
H1081       H  0.07793473  0.80709558  0.51950667     0.12000
H1082       H  0.05837316  0.78362196  0.47324803     0.11800
H1083       H  0.00723759  0.76634496  0.43635895     0.12300
H1084       H  0.91129098  0.76342994  0.48880874     0.14200
C1085       C  0.25741535  0.35328657  0.64679980    -0.05800
C1086       C  0.29112244  0.36552807  0.62855790    -0.05700
C1087       C  0.33443496  0.38636177  0.63678034    -0.23900
C1088       C  0.34505748  0.39590812  0.66339515     0.18300
C1089       C  0.31166328  0.38518790  0.68185670     0.15600
C1090       C  0.26809169  0.36362613  0.67349756    -0.18900
C1091       C  0.32247538  0.39579231  0.70839611    -0.20700
C1092       C  0.36585537  0.41629118  0.71660286    -0.13300
C1093       C  0.39914521  0.42573111  0.69853775     0.03400
C1094       C  0.38844999  0.41554712  0.67189098    -0.25400
H1095       H  0.28394856  0.35782987  0.60794850     0.08500
H1096       H  0.35963301  0.39458471  0.62232277     0.12100
H1097       H  0.24251544  0.35456117  0.68781213     0.12000
H1098       H  0.29735697  0.38797974  0.72284526     0.11800
H1099       H  0.37332012  0.42360997  0.73722832     0.12300
H1100       H  0.41396236  0.42301361  0.65776581     0.14200
C1101       C  0.07735483  0.33289073  0.66147074    -0.05800
C1102       C  0.05779841  0.31765583  0.68616598    -0.05700
C1103       C  0.03705317  0.33708625  0.69891546    -0.23900
C1104       C  0.03484470  0.37191418  0.68716799     0.18300
C1105       C  0.05398268  0.38746301  0.66225462     0.15600
C1106       C  0.07555560  0.36818322  0.64967407    -0.18900
C1107       C  0.05058581  0.42157898  0.65026353    -0.20700
C1108       C  0.02813735  0.43970851  0.66266577    -0.13300
C1109       C  0.00935525  0.42468667  0.68754352     0.03400
C1110       C  0.01323146  0.39096623  0.69977545    -0.25400
H1111       H  0.05864120  0.29061279  0.69578188     0.08500
H1112       H  0.02237416  0.32455657  0.71793836     0.12100
H1113       H  0.09011277  0.38003258  0.63053905     0.12000
H1114       H  0.06484458  0.43391580  0.63112933     0.11800
H1115       H  0.02555810  0.46564508  0.65282029     0.12300
H1116       H  0.99833831  0.37869614  0.71879600     0.14200
C1117       C  0.84732559  0.01006260  0.64133512    -0.05800
C1118       C  0.84830540  0.04481397  0.62714952    -0.05700
C1119       C  0.88521463  0.08584716  0.62733974    -0.23900
C1120       C  0.92209993  0.09254332  0.64132683     0.18300
C1121       C  0.92039384  0.05886791  0.65744364     0.15600
C1122       C  0.88252664  0.01779913  0.65770153    -0.18900
C1123       C  0.95777514  0.06587688  0.67118704    -0.20700
C1124       C  0.99715825  0.10442706  0.66730654    -0.13300
C1125       C  0.99958868  0.13632847  0.64962596     0.03400
C1126       C  0.96153965  0.13104219  0.63768466    -0.25400
H1127       H  0.82141865  0.03943573  0.61453217     0.08500
H1128       H  0.88589251  0.11148153  0.61511936     0.12100
H1129       H  0.88215928  0.99093199  0.66842495     0.12000
H1130       H  0.95712951  0.04061912  0.68375141     0.11800
H1131       H  0.02622660  0.10794065  0.67666151     0.12300
H1132       H  0.96324521  0.15577204  0.62416283     0.14200
C1133       C  0.17338639  0.15952221  0.64393251    -0.05800
C1134       C  0.20038827  0.15754960  0.62468180    -0.05700
C1135       C  0.20640367  0.12142332  0.62329333    -0.23900
C1136       C  0.18455265  0.08645518  0.64080551     0.18300
C1137       C  0.16031293  0.08995847  0.66164733     0.15600
C1138       C  0.15532758  0.12690240  0.66325461    -0.18900
C1139       C  0.13790028  0.05463936  0.67886069    -0.20700
C1140       C  0.13588776  0.01479861  0.67390701    -0.13300
C1141       C  0.15642475  0.00992364  0.65175289     0.03400
C1142       C  0.18290429  0.04660353  0.63622936    -0.25400
H1143       H  0.21376678  0.18217402  0.60939024     0.08500
H1144       H  0.22524475  0.11932240  0.60727169     0.12100
H1145       H  0.13358670  0.12803730  0.67771392     0.12000
H1146       H  0.11947468  0.05689803  0.69507036     0.11800
H1147       H  0.11545791  0.98699776  0.68617792     0.12300
H1148       H  0.19922608  0.04317150  0.61922623     0.14200
C1149       C  0.26745847  0.20096979  0.47598098    -0.05800
C1150       C  0.27220299  0.18577137  0.50062479    -0.05700
C1151       C  0.25891421  0.19750311  0.52338584    -0.23900
C1152       C  0.23983866  0.22402456  0.52178911     0.18300
C1153       C  0.23689430  0.24143744  0.49722418     0.15600
C1154       C  0.25103046  0.22994945  0.47435980    -0.18900
C1155       C  0.21731673  0.26765144  0.49585213    -0.20700
C1156       C  0.19875488  0.27447268  0.51829475    -0.13300
C1157       C  0.19931897  0.25504227  0.54240866     0.03400
C1158       C  0.22123904  0.23105405  0.54412002    -0.25400
H1159       H  0.28386074  0.16264309  0.50207467     0.08500
H1160       H  0.26139547  0.18391235  0.54205636     0.12100
H1161       H  0.24616689  0.24069563  0.45525737     0.12000
H1162       H  0.21482546  0.28140906  0.47725501     0.11800
H1163       H  0.18192298  0.29295531  0.51646759     0.12300
H1164       H  0.22207922  0.21610627  0.56264253     0.14200
C1165       C  0.91886606  0.25477511  0.34958736    -0.05800
C1166       C  0.93621399  0.25922764  0.32425843    -0.05700
C1167       C  0.95945161  0.30003999  0.31240449    -0.23900
C1168       C  0.96635347  0.33735409  0.32580546     0.18300
C1169       C  0.94933660  0.33353462  0.35134348     0.15600
C1170       C  0.92508408  0.29211155  0.36296754    -0.18900
C1171       C  0.95743318  0.37130045  0.36488065    -0.20700
C1172       C  0.98192613  0.41232718  0.35313466    -0.13300
C1173       C  0.99793039  0.41608755  0.32753476     0.03400
C1174       C  0.99010206  0.37843478  0.31401517    -0.25400
H1175       H  0.93182883  0.23095458  0.31351945     0.08500
H1176       H  0.97237130  0.30244105  0.29288444     0.12100
H1177       H  0.91226577  0.28906441  0.38258613     0.12000
H1178       H  0.94484926  0.36910950  0.38447024     0.11800
H1179       H  0.98737353  0.44105522  0.36377836     0.12300
H1180       H  0.00266623  0.38116796  0.29433798     0.14200
C1181       C  0.59746600  0.02511017  0.30589699    -0.05800
C1182       C  0.63101949  0.03414465  0.28808229    -0.05700
C1183       C  0.67411267  0.05390311  0.29652383    -0.23900
C1184       C  0.68460186  0.06554173  0.32290688     0.18300
C1185       C  0.65120036  0.05728759  0.34092908     0.15600
C1186       C  0.60783096  0.03681861  0.33237441    -0.18900
C1187       C  0.66174174  0.06928714  0.36724894    -0.20700
C1188       C  0.70479964  0.08862189  0.37573984    -0.13300
C1189       C  0.73831890  0.09633507  0.35812004     0.03400
C1190       C  0.72785400  0.08489324  0.33159660    -0.25400
H1191       H  0.62381514  0.02495982  0.26764870     0.08500
H1192       H  0.69922129  0.05985648  0.28242205     0.12100
H1193       H  0.58220717  0.03002468  0.34627992     0.12000
H1194       H  0.63663905  0.06338652  0.38134381     0.11800
H1195       H  0.71174626  0.09700083  0.39628556     0.12300
H1196       H  0.75322109  0.09046731  0.31777410     0.14200
C1197       C  0.83780180  0.85323460  0.35064595    -0.05800
C1198       C  0.84804634  0.87624156  0.32679135    -0.05700
C1199       C  0.84329679  0.91321182  0.32412662    -0.23900
C1200       C  0.82932285  0.92786003  0.34556375     0.18300
C1201       C  0.81517370  0.90213687  0.36870836     0.15600
C1202       C  0.81870983  0.86454634  0.37082367    -0.18900
C1203       C  0.80260940  0.91698204  0.39055089    -0.20700
C1204       C  0.80867344  0.95903144  0.39058241    -0.13300
C1205       C  0.82605390  0.98615370  0.36855220     0.03400
C1206       C  0.83387140  0.96974437  0.34546680    -0.25400
H1207       H  0.86331989  0.86803304  0.31119723     0.08500
H1208       H  0.85402737  0.93230253  0.30619213     0.12100
H1209       H  0.81135024  0.84692006  0.38935097     0.12000
H1210       H  0.79159579  0.89754917  0.40836082     0.11800
H1211       H  0.80282837  0.97158066  0.40852528     0.12300
H1212       H  0.84804711  0.99111723  0.32864806     0.14200
C1213       C  0.94180948  0.20321895  0.46825344    -0.05800
C1214       C  0.97419991  0.24706194  0.46598428    -0.05700
C1215       C  0.00252094  0.26805779  0.48709355    -0.23900
C1216       C  0.99854036  0.24553108  0.51078161     0.18300
C1217       C  0.96379647  0.20246738  0.51366649     0.15600
C1218       C  0.93584327  0.18178952  0.49251097    -0.18900
C1219       C  0.95908831  0.17955773  0.53709345    -0.20700
C1220       C  0.99060671  0.19753102  0.55663039    -0.13300
C1221       C  0.02710859  0.23888784  0.55333133     0.03400
C1222       C  0.03009711  0.26380642  0.53087882    -0.25400
H1223       H  0.97904542  0.26429056  0.44751043     0.08500
H1224       H  0.02855981  0.30121946  0.48451964     0.12100
H1225       H  0.91036932  0.14817446  0.49458547     0.12000
H1226       H  0.93242031  0.14668975  0.53966949     0.11800
H1227       H  0.98801522  0.17779442  0.57368411     0.12300
H1228       H  0.05857551  0.29543013  0.52803820     0.14200
C1229       C  0.78108840  0.04517451  0.46101571    -0.05800
C1230       C  0.75222734  0.00188401  0.45395603    -0.05700
C1231       C  0.73202224  0.96972939  0.47319835    -0.23900
C1232       C  0.74146296  0.98019536  0.49979997     0.18300
C1233       C  0.76825707  0.02425596  0.50712727     0.15600
C1234       C  0.78712051  0.05668861  0.48763129    -0.18900
C1235       C  0.77894370  0.03453211  0.53365922    -0.20700
C1236       C  0.76603947  0.00133668  0.55242728    -0.13300
C1237       C  0.74146723  0.95754948  0.54506562     0.03400
C1238       C  0.72781413  0.94709671  0.51892602    -0.25400
H1239       H  0.74741050  0.99251946  0.43347632     0.08500
H1240       H  0.71144340  0.93624130  0.46719982     0.12100
H1241       H  0.81006951  0.08992706  0.49312402     0.12000
H1242       H  0.79952616  0.06802102  0.53965544     0.11800
H1243       H  0.77730733  0.00968735  0.57248203     0.12300
H1244       H  0.70964032  0.91317217  0.51317310     0.14200
C1245       C  0.99976905  0.14007468  0.36862946    -0.05800
C1246       C  0.00555385  0.11691859  0.34820183    -0.05700
C1247       C  0.04556923  0.11868416  0.34473402    -0.23900
C1248       C  0.08049361  0.14379686  0.36161279     0.18300
C1249       C  0.07563499  0.16936205  0.38109949     0.15600
C1250       C  0.03549366  0.16748750  0.38439241    -0.18900
C1251       C  0.11015795  0.19432100  0.39813355    -0.20700
C1252       C  0.14785929  0.19125286  0.39732883    -0.13300
C1253       C  0.15212975  0.16382784  0.37921291     0.03400
C1254       C  0.11910815  0.14165153  0.36052101    -0.25400
H1255       H  0.97846260  0.09551341  0.33582430     0.08500
H1256       H  0.04862340  0.09901683  0.32962762     0.12100
H1257       H  0.03147181  0.18572956  0.40005791     0.12000
H1258       H  0.10712945  0.21437626  0.41299051     0.11800
H1259       H  0.17298130  0.20874492  0.41182820     0.12300
H1260       H  0.12190825  0.12006569  0.34668541     0.14200
loop_ 
_geom_bond_atom_site_label_1 
_geom_bond_atom_site_label_2 
_geom_bond_distance 
_geom_bond_site_symmetry_2 
_ccdc_geom_bond_type 
O1          Cr19   1.985       .  S
O1            C9   1.255       .  A
O2          Cr19   2.013       .  S
O2            C3   1.267       .  A
C3            O4   1.259       .  A
C3         C1189   1.486       .  S
O4          Cr20   1.970       .  S
O5          Cr20   2.038       .  S
O5            C6   1.274       .  A
C6            O7   1.258       .  A
C6         C1229   1.471       .  S
O7          Cr21   1.959       .  S
O8          Cr21   1.990       .  S
O8            C9   1.259       .  A
C9         C1205   1.461   1_545  S
O10         Cr19   2.035       .  S
O10          C18   1.274       .  A
O11         Cr19   1.956       .  S
O11          C12   1.258       .  A
C12          O13   1.270       .  A
C12        C1165   1.478       .  S
O13         Cr20   2.019       .  S
O14         Cr20   1.996       .  S
O14          C15   1.259       .  A
C15          O16   1.262       .  A
C15        C1213   1.480       .  S
O16         Cr21   2.001       .  S
O17         Cr21   1.971       .  S
O17          C18   1.263       .  A
C18        C1245   1.482       .  S
Cr19         O22   1.775       .  S
Cr20         O22   1.773       .  S
Cr21         O22   1.758       .  S
O23         Cr41   1.987       .  S
O23          C31   1.258       .  A
O24         Cr41   2.009       .  S
O24          C25   1.266       .  A
C25          O26   1.264       .  A
C25        C1085   1.488       .  S
O26         Cr42   1.990       .  S
O27         Cr42   2.036       .  S
O27          C28   1.273       .  A
C28          O29   1.261       .  A
C28        C1157   1.483       .  S
O29         Cr43   1.967       .  S
O30         Cr43   1.991       .  S
O30          C31   1.260       .  A
C31        C1133   1.460       .  S
O32         Cr41   2.029       .  S
O32          C40   1.270       .  A
O33         Cr41   1.963       .  S
O33          C34   1.260       .  A
C34          O35   1.272       .  A
C34        C1101   1.486       .  S
O35         Cr42   2.028       .  S
O36         Cr42   2.005       .  S
O36          C37   1.263       .  A
C37          O38   1.260       .  A
C37        C1221   1.473       .  S
O38         Cr43   1.986       .  S
O39         Cr43   1.969       .  S
O39          C40   1.260       .  A
C40        C1125   1.475   1_455  S
Cr41         O44   1.775       .  S
Cr42         O44   1.774       .  S
Cr43         O44   1.758       .  S
O45         Cr63   2.002       .  S
O45          C53   1.262       .  A
O46         Cr63   2.012       .  S
O46          C47   1.266       .  A
C47          O48   1.257       .  A
C47        C1005   1.476       .  S
O48         Cr64   1.966       .  S
O49         Cr64   2.034       .  S
O49          C50   1.272       .  A
C50          O51   1.259       .  A
C50        C1069   1.479       .  S
O51         Cr65   1.957       .  S
O52         Cr65   2.003       .  S
O52          C53   1.262       .  A
C53        C1037   1.473   1_455  S
O54         Cr63   2.027       .  S
O54          C62   1.271       .  A
O55         Cr63   1.978       .  S
O55          C56   1.263       .  A
C56          O57   1.272       .  A
C56        C1029   1.489       .  S
O57         Cr64   2.021       .  S
O58         Cr64   1.975       .  S
O58          C59   1.255       .  A
C59          O60   1.261       .  A
C59        C1053   1.457       .  S
O60         Cr65   1.997       .  S
O61         Cr65   1.963       .  S
O61          C62   1.259       .  A
C62        C1141   1.475   1_565  S
Cr63         O66   1.770       .  S
Cr64         O66   1.769       .  S
Cr65         O66   1.758       .  S
O67         Cr85   2.040       .  S
O67          C75   1.273       .  A
O68         Cr85   1.972       .  S
O68          C69   1.263       .  A
C69          O70   1.266       .  A
C69         C957   1.467       .  S
O70         Cr86   2.001       .  S
O71         Cr86   2.000       .  S
O71          C72   1.261       .  A
C72          O73   1.260       .  A
C72        C1149   1.469       .  S
O73         Cr87   1.993       .  S
O74         Cr87   1.963       .  S
O74          C75   1.259       .  A
C75        C1253   1.479       .  S
O76         Cr85   1.997       .  S
O76          C84   1.259       .  A
O77         Cr85   2.010       .  S
O77          C78   1.267       .  A
C78          O79   1.264       .  A
C78         C981   1.486       .  S
O79         Cr86   1.991       .  S
O80         Cr86   2.019       .  S
O80          C81   1.269       .  A
C81          O82   1.258       .  A
C81        C1061   1.466       .  S
O82         Cr87   1.965       .  S
O83         Cr87   1.987       .  S
O83          C84   1.258       .  A
C84         C997   1.462       .  S
Cr85         O88   1.772       .  S
Cr86         O88   1.769       .  S
Cr87         O88   1.757       .  S
O89        Cr107   2.018       .  S
O89          C97   1.268       .  A
O90        Cr107   1.965       .  S
O90          C91   1.259       .  A
C91          O92   1.267       .  A
C91         C933   1.468       .  S
O92        Cr108   2.016       .  S
O93        Cr108   1.984       .  S
O93          C94   1.258       .  A
C94          O95   1.264       .  A
C94        C1077   1.465       .  S
O95        Cr109   2.004       .  S
O96        Cr109   1.976       .  S
O96          C97   1.260       .  A
C97         C989   1.474   1_655  S
O98        Cr107   1.985       .  S
O98         C106   1.260       .  A
O99        Cr107   2.017       .  S
O99         C100   1.268       .  A
C100        O101   1.260       .  A
C100        C917   1.479       .  S
O101       Cr108   1.972       .  S
O102       Cr108   2.025       .  S
O102        C103   1.270       .  A
C103        O104   1.257       .  A
C103        C941   1.471       .  S
O104       Cr109   1.968       .  S
O105       Cr109   1.993       .  S
O105        C106   1.264       .  A
C106       C1197   1.462       .  S
Cr107       O110   1.768       .  S
Cr108       O110   1.766       .  S
Cr109       O110   1.754       .  S
O111       Cr129   2.033       .  S
O111        C119   1.270       .  A
O112       Cr129   1.980       .  S
O112        C113   1.261       .  A
C113        O114   1.267       .  A
C113        C893   1.477       .  S
O114       Cr130   2.018       .  S
O115       Cr130   1.990       .  S
O115        C116   1.259       .  A
C116        O117   1.262       .  A
C116       C1237   1.467       .  S
O117       Cr131   2.001       .  S
O118       Cr131   1.963       .  S
O118        C119   1.258       .  A
C119       C1117   1.474   1_565  S
O120       Cr129   1.996       .  S
O120        C128   1.262       .  A
O121       Cr129   2.025       .  S
O121        C122   1.272       .  A
C122        O123   1.262       .  A
C122        C877   1.488       .  S
O123       Cr130   1.972       .  S
O124       Cr130   2.031       .  S
O124        C125   1.271       .  A
C125        O126   1.258       .  A
C125        C949   1.473       .  S
O126       Cr131   1.961       .  S
O127       Cr131   1.998       .  S
O127        C128   1.263       .  A
C128       C1045   1.470       .  S
Cr129       O132   1.770       .  S
Cr130       O132   1.774       .  S
Cr131       O132   1.757       .  S
O133       Cr151   1.992       .  S
O133        C141   1.258       .  A
O134       Cr151   2.010       .  S
O134        C135   1.267   1_565  A
C135        O136   1.260       .  A
C135       C1181   1.480       .  S
O136       Cr152   1.975   1_545  S
O137       Cr152   2.027       .  S
O137        C138   1.270       .  A
C138        O139   1.259       .  A
C138        C837   1.473       .  S
O139       Cr153   1.970       .  S
O140       Cr153   1.988       .  S
O140        C141   1.258       .  A
C141        C813   1.464       .  S
O142       Cr151   2.021       .  S
O142        C150   1.271       .  A
O143       Cr151   1.968       .  S
O143        C144   1.260       .  A
C144        O145   1.270   1_565  A
C144        C973   1.485   1_565  S
O145       Cr152   2.024   1_545  S
O146       Cr152   1.997       .  S
O146        C147   1.262       .  A
C147        O148   1.261       .  A
C147        C869   1.469       .  S
O148       Cr153   1.993       .  S
O149       Cr153   1.969       .  S
O149        C150   1.262       .  A
C150        C845   1.478       .  S
Cr151       O154   1.774       .  S
Cr152       O154   1.775       .  S
Cr153       O154   1.761       .  S
O155       Cr173   2.001       .  S
O155        C163   1.262       .  A
O156       Cr173   1.997       .  S
O156        C157   1.264       .  A
C157        O158   1.261       .  A
C157        C733   1.476       .  S
O158       Cr174   1.977       .  S
O159       Cr174   2.032       .  S
O159        C160   1.271       .  A
C160        O161   1.261       .  A
C160        C789   1.480       .  S
O161       Cr175   1.969       .  S
O162       Cr175   1.994       .  S
O162        C163   1.260       .  A
C163        C765   1.473       .  S
O164       Cr173   2.007       .  S
O164        C172   1.267       .  A
O165       Cr173   1.978       .  S
O165        C166   1.261       .  A
C166        O167   1.268       .  A
C166        C749   1.481       .  S
O167       Cr174   2.012       .  S
O168       Cr174   1.994       .  S
O168        C169   1.259       .  A
C169        O170   1.262       .  A
C169        C861   1.474       .  S
O170       Cr175   2.001       .  S
O171       Cr175   1.972       .  S
O171        C172   1.263       .  A
C172        C797   1.476       .  S
Cr173       O176   1.778       .  S
Cr174       O176   1.773       .  S
Cr175       O176   1.762       .  S
O177       Cr195   2.034       .  S
O177        C185   1.274       .  A
O178       Cr195   1.980       .  S
O178        C179   1.263       .  A
C179        O180   1.264   1_455  A
C179        C925   1.475   1_455  S
O180       Cr196   2.000   1_655  S
O181       Cr196   2.004       .  S
O181        C182   1.262       .  A
C182        O183   1.260       .  A
C182        C781   1.469       .  S
O183       Cr197   1.991       .  S
O184       Cr197   1.958       .  S
O184        C185   1.259       .  A
C185        C853   1.478       .  S
O186       Cr195   2.007       .  S
O186        C194   1.262       .  A
O187       Cr195   2.019       .  S
O187        C188   1.270       .  A
C188        O189   1.261       .  A
C188       C1173   1.473   1_455  S
O189       Cr196   1.968       .  S
O190       Cr196   2.020       .  S
O190        C191   1.269       .  A
C191        O192   1.259       .  A
C191        C717   1.465       .  S
O192       Cr197   1.972       .  S
O193       Cr197   1.981       .  S
O193        C194   1.259       .  A
C194        C701   1.475       .  S
Cr195       O198   1.772       .  S
Cr196       O198   1.764       .  S
Cr197       O198   1.751       .  S
O199       Cr217   2.023       .  S
O199        C207   1.271       .  A
O200       Cr217   1.980       .  S
O200        C201   1.260       .  A
C201        O202   1.268       .  A
C201        C653   1.486       .  S
O202       Cr218   2.030       .  S
O203       Cr218   2.000       .  S
O203        C204   1.264       .  A
C204        O205   1.263       .  A
C204        C685   1.472       .  S
O205       Cr219   2.001       .  S
O206       Cr219   1.958       .  S
O206        C207   1.259       .  A
C207        C677   1.475       .  S
O208       Cr217   1.994       .  S
O208        C216   1.260       .  A
O209       Cr217   2.023       .  S
O209        C210   1.271       .  A
C210        O211   1.260       .  A
C210        C645   1.486       .  S
O211       Cr218   1.972       .  S
O212       Cr218   2.023       .  S
O212        C213   1.269       .  A
C213        O214   1.259       .  A
C213        C725   1.472       .  S
O214       Cr219   1.968       .  S
O215       Cr219   2.001       .  S
O215        C216   1.262       .  A
C216        C773   1.473       .  S
Cr217       O220   1.773       .  S
Cr218       O220   1.775       .  S
Cr219       O220   1.758       .  S
O221       Cr239   1.994       .  S
O221        C229   1.260       .  A
O222       Cr239   2.015       .  S
O222        C223   1.269       .  A
C223        O224   1.263       .  A
C223        C589   1.489       .  S
O224       Cr240   1.979       .  S
O225       Cr240   2.041       .  S
O225        C226   1.275       .  A
C226        O227   1.258       .  A
C226        C829   1.470       .  S
O227       Cr241   1.956       .  S
O228       Cr241   1.976       .  S
O228        C229   1.258       .  A
C229        C805   1.462       .  S
O230       Cr239   2.022       .  S
O230        C238   1.272       .  A
O231       Cr239   1.962       .  S
O231        C232   1.258       .  A
C232        O233   1.268       .  A
C232        C605   1.475       .  S
O233       Cr240   2.012       .  S
O234       Cr240   2.000       .  S
O234        C235   1.259       .  A
C235        O236   1.256       .  A
C235        C621   1.466       .  S
O236       Cr241   1.990       .  S
O237       Cr241   1.968       .  S
O237        C238   1.262       .  A
C238        C669   1.478       .  S
Cr239       O242   1.768       .  S
Cr240       O242   1.767       .  S
Cr241       O242   1.755       .  S
O243       Cr261   1.989       .  S
O243        C251   1.259       .  A
O244       Cr261   2.018       .  S
O244        C245   1.270       .  A
C245        O246   1.261       .  A
C245        C965   1.476       .  S
O246       Cr262   1.959       .  S
O247       Cr262   2.033       .  S
O247        C248   1.270       .  A
C248        O249   1.259       .  A
C248        C693   1.478       .  S
O249       Cr263   1.976       .  S
O250       Cr263   1.990       .  S
O250        C251   1.262       .  A
C251        C709   1.474       .  S
O252       Cr261   2.025       .  S
O252        C260   1.271       .  A
O253       Cr261   1.970       .  S
O253        C254   1.258       .  A
C254        O255   1.266       .  A
C254        C909   1.478       .  S
O255       Cr262   2.011       .  S
O256       Cr262   1.981       .  S
O256        C257   1.258       .  A
C257        O258   1.262       .  A
C257        C629   1.461       .  S
O258       Cr263   2.002       .  S
O259       Cr263   1.967       .  S
O259        C260   1.260       .  A
C260        C821   1.480       .  S
Cr261       O264   1.778       .  S
Cr262       O264   1.772       .  S
Cr263       O264   1.759       .  S
O265       Cr283   2.005       .  S
O265        C273   1.266       .  A
O266       Cr283   2.001       .  S
O266        C267   1.267       .  A
C267        O268   1.268       .  A
C267        C597   1.486       .  S
O268       Cr284   2.000       .  S
O269       Cr284   2.017       .  S
O269        C270   1.266       .  A
C270        O271   1.260       .  A
C270        C549   1.481       .  S
O271       Cr285   1.990       .  S
O272       Cr285   1.992       .  S
O272        C273   1.263       .  A
C273        C525   1.482       .  S
O274       Cr283   1.997       .  S
O274        C282   1.263       .  A
O275       Cr283   1.996       .  S
O275        C276   1.262       .  A
C276        O277   1.263       .  A
C276        C637   1.484       .  S
O277       Cr284   2.000       .  S
O278       Cr284   2.004       .  S
O278        C279   1.264       .  A
C279        O280   1.264       .  A
C279        C581   1.475       .  S
O280       Cr285   2.000       .  S
O281       Cr285   1.979       .  S
O281        C282   1.261       .  A
C282        C557   1.476       .  S
Cr283       O286   1.782       .  S
Cr284       O286   1.777       .  S
Cr285       O286   1.768       .  S
O287       Cr305   2.017       .  S
O287        C295   1.267       .  A
O288       Cr305   1.970       .  S
O288        C289   1.264       .  A
C289        O290   1.271       .  A
C289       C1013   1.475   1_655  S
O290       Cr306   2.013       .  S
O291       Cr306   1.987       .  S
O291        C292   1.259       .  A
C292        O293   1.263       .  A
C292        C509   1.467       .  S
O293       Cr307   1.997       .  S
O294       Cr307   1.990       .  S
O294        C295   1.262       .  A
C295        C501   1.483       .  S
O296       Cr305   1.990       .  S
O296        C304   1.262       .  A
O297       Cr305   2.003       .  S
O297        C298   1.262       .  A
C298        O299   1.261       .  A
C298       C1109   1.482   1_655  S
O299       Cr306   1.993       .  S
O300       Cr306   2.025       .  S
O300        C301   1.267       .  A
C301        O302   1.260       .  A
C301        C573   1.481       .  S
O302       Cr307   1.970       .  S
O303       Cr307   2.001       .  S
O303        C304   1.264       .  A
C304        C485   1.464       .  S
Cr305       O308   1.775       .  S
Cr306       O308   1.775       .  S
Cr307       O308   1.763       .  S
O309       Cr327   1.990       .  S
O309        C317   1.260       .  A
O310       Cr327   2.007       .  S
O310        C311   1.269       .  A
C311        O312   1.264       .  A
C311        C741   1.478       .  S
O312       Cr328   1.976       .  S
O313       Cr328   2.029       .  S
O313        C314   1.269       .  A
C314        O315   1.258       .  A
C314        C517   1.476       .  S
O315       Cr329   1.970       .  S
O316       Cr329   1.983       .  S
O316        C317   1.260       .  A
C317        C565   1.462       .  S
O318       Cr327   2.023       .  S
O318        C326   1.269       .  A
O319       Cr327   1.981       .  S
O319        C320   1.262       .  A
C320        O321   1.264       .  A
C320        C613   1.470       .  S
O321       Cr328   2.000       .  S
O322       Cr328   1.996       .  S
O322        C323   1.261       .  A
C323        O324   1.262       .  A
C323        C469   1.466       .  S
O324       Cr329   1.992       .  S
O325       Cr329   1.968       .  S
O325        C326   1.260       .  A
C326        C453   1.481       .  S
Cr327       O330   1.768       .  S
Cr328       O330   1.768       .  S
Cr329       O330   1.753       .  S
O331       Cr349   2.034       .  S
O331        C339   1.272       .  A
O332       Cr349   1.995       .  S
O332        C333   1.265       .  A
C333        O334   1.269       .  A
C333        C661   1.494       .  S
O334       Cr350   2.019       .  S
O335       Cr350   1.993       .  S
O335        C336   1.262       .  A
C336        O337   1.263       .  A
C336        C413   1.470       .  S
O337       Cr351   1.997       .  S
O338       Cr351   1.957       .  S
O338        C339   1.258       .  A
C339        C445   1.481       .  S
O340       Cr349   2.011       .  S
O340        C348   1.265       .  A
O341       Cr349   2.027       .  S
O341        C342   1.271       .  A
C342        O343   1.261       .  A
C342        C757   1.485       .  S
O343       Cr350   1.971       .  S
O344       Cr350   2.022       .  S
O344        C345   1.268       .  A
C345        O346   1.258       .  A
C345        C429   1.472       .  S
O346       Cr351   1.968       .  S
O347       Cr351   1.999       .  S
O347        C348   1.261       .  A
C348        C533   1.482       .  S
Cr349       O352   1.775       .  S
Cr350       O352   1.775       .  S
Cr351       O352   1.759       .  S
O353       Cr371   2.017       .  S
O353        C361   1.268       .  A
O354       Cr371   1.966       .  S
O354        C355   1.262       .  A
C355        O356   1.273       .  A
C355        C901   1.483       .  S
O356       Cr372   2.031       .  S
O357       Cr372   2.000       .  S
O357        C358   1.264       .  A
C358        O359   1.259       .  A
C358        C541   1.474       .  S
O359       Cr373   1.989       .  S
O360       Cr373   1.979       .  S
O360        C361   1.261       .  A
C361        C477   1.477       .  S
O362       Cr371   1.998       .  S
O362        C370   1.263       .  A
O363       Cr371   2.015       .  S
O363        C364   1.263       .  A
C364        O365   1.259       .  A
C364       C1021   1.486   1_545  S
O365       Cr372   1.986       .  S
O366       Cr372   2.015       .  S
O366        C367   1.268       .  A
C367        O368   1.260       .  A
C367        C437   1.466       .  S
O368       Cr373   1.969       .  S
O369       Cr373   1.994       .  S
O369        C370   1.261       .  A
C370        C405   1.468       .  S
Cr371       O374   1.778       .  S
Cr372       O374   1.777       .  S
Cr373       O374   1.762       .  S
O375       Cr393   2.032       .  S
O375        C383   1.275       .  A
O376       Cr393   1.975       .  S
O376        C377   1.262       .  A
C377        O378   1.271       .  A
C377       C1093   1.483       .  S
O378       Cr394   2.017       .  S
O379       Cr394   1.995       .  S
O379        C380   1.257       .  A
C380        O381   1.260       .  A
C380        C421   1.472       .  S
O381       Cr395   1.995       .  S
O382       Cr395   1.972       .  S
O382        C383   1.264       .  A
C383        C397   1.485       .  S
O384       Cr393   2.002       .  S
O384        C392   1.259       .  A
O385       Cr393   2.011       .  S
O385        C386   1.266       .  A
C386        O387   1.259       .  A
C386        C885   1.487       .  S
O387       Cr394   1.974       .  S
O388       Cr394   2.036       .  S
O388        C389   1.273       .  A
C389        O390   1.261       .  A
C389        C461   1.480       .  S
O390       Cr395   1.961       .  S
O391       Cr395   2.001       .  S
O391        C392   1.259       .  A
C392        C493   1.472       .  S
Cr393       O396   1.775       .  S
Cr394       O396   1.776       .  S
Cr395       O396   1.764       .  S
C397        C398   1.407       .  A
C397        C402   1.408       .  A
C398        C399   1.400       .  A
C398        H407   1.083       .  S
C399        C400   1.402       .  A
C399        H408   1.084       .  S
C400        C406   1.408       .  A
C400        C401   1.415       .  A
C401        C403   1.402       .  A
C401        C402   1.405       .  A
C402        H409   1.085       .  S
C403        C404   1.397       .  A
C403        H410   1.084       .  S
C404        C405   1.403       .  A
C404        H411   1.083       .  S
C405        C406   1.403       .  A
C406        H412   1.085       .  S
C413        C414   1.403       .  A
C413        C418   1.401       .  A
C414        C415   1.404       .  A
C414        H423   1.083       .  S
C415        C416   1.406       .  A
C415        H424   1.083       .  S
C416        C422   1.412       .  A
C416        C417   1.416       .  A
C417        C419   1.399       .  A
C417        C418   1.401       .  A
C418        H425   1.085       .  S
C419        C420   1.392       .  A
C419        H426   1.084       .  S
C420        C421   1.403       .  A
C420        H427   1.084       .  S
C421        C422   1.406       .  A
C422        H428   1.084       .  S
C429        C430   1.404       .  A
C429        C434   1.404       .  A
C430        C431   1.397       .  A
C430        H439   1.083       .  S
C431        C432   1.402       .  A
C431        H440   1.084       .  S
C432        C438   1.402       .  A
C432        C433   1.415       .  A
C433        C435   1.402       .  A
C433        C434   1.401       .  A
C434        H441   1.085       .  S
C435        C436   1.397       .  A
C435        H442   1.085       .  S
C436        C437   1.403       .  A
C436        H443   1.083       .  S
C437        C438   1.402       .  A
C438        H444   1.085       .  S
C445        C446   1.405       .  A
C445        C450   1.406       .  A
C446        C447   1.403       .  A
C446        H455   1.083   1_556  S
C447        C448   1.406       .  A
C447        H456   1.082   1_556  S
C448        C454   1.409       .  A
C448        C449   1.413       .  A
C449        C451   1.400       .  A
C449        C450   1.399       .  A
C450        H457   1.084       .  S
C451        C452   1.393       .  A
C451        H458   1.083       .  S
C452        C453   1.406       .  A
C452        H459   1.084       .  S
C453        C454   1.410       .  A
C454        H460   1.083       .  S
C461        C462   1.405       .  A
C461        C466   1.409       .  A
C462        C463   1.389       .  A
C462        H471   1.077       .  S
C463        C464   1.395       .  A
C463        H472   1.085       .  S
C464        C470   1.397       .  A
C464        C465   1.416       .  A
C465        C467   1.406       .  A
C465        C466   1.411       .  A
C466        H473   1.084       .  S
C467        C468   1.404       .  A
C467        H474   1.084       .  S
C468        C469   1.404       .  A
C468        H475   1.083       .  S
C469        C470   1.399       .  A
C470        H476   1.086       .  S
C477        C478   1.405       .  A
C477        C482   1.406       .  A
C478        C479   1.396       .  A
C478        H487   1.083       .  S
C479        C480   1.401       .  A
C479        H488   1.085       .  S
C480        C486   1.403       .  A
C480        C481   1.415       .  A
C481        C483   1.403       .  A
C481        C482   1.405       .  A
C482        H489   1.086       .  S
C483        C484   1.398       .  A
C483        H490   1.085       .  S
C484        C485   1.402       .  A
C484        H491   1.082       .  S
C485        C486   1.401       .  A
C486        H492   1.086       .  S
C493        C494   1.402       .  A
C493        C498   1.403       .  A
C494        C495   1.401       .  A
C494        H503   1.079       .  S
C495        C496   1.404       .  A
C495        H504   1.083       .  S
C496        C502   1.410       .  A
C496        C497   1.416       .  A
C497        C499   1.401       .  A
C497        C498   1.407       .  A
C498        H505   1.084       .  S
C499        C500   1.397       .  A
C499        H506   1.083       .  S
C500        C501   1.407       .  A
C500        H507   1.084       .  S
C501        C502   1.407       .  A
C502        H508   1.084       .  S
C509        C510   1.402       .  A
C509        C514   1.404       .  A
C510        C511   1.395       .  A
C510        H519   1.084       .  S
C511        C512   1.401       .  A
C511        H520   1.084       .  S
C512        C518   1.402       .  A
C512        C513   1.416       .  A
C513        C515   1.404       .  A
C513        C514   1.408       .  A
C514        H521   1.084       .  S
C515        C516   1.401       .  A
C515        H522   1.083       .  S
C516        C517   1.405       .  A
C516        H523   1.083       .  S
C517        C518   1.404       .  A
C518        H524   1.084       .  S
C525        C526   1.405   1_556  A
C525        C530   1.405       .  A
C526        C527   1.407       .  A
C526        H535   1.083       .  S
C527        C528   1.408   1_554  A
C527        H536   1.084       .  S
C528        C534   1.417       .  A
C528        C529   1.415       .  A
C529        C531   1.401       .  A
C529        C530   1.407       .  A
C530        H537   1.086       .  S
C531        C532   1.396       .  A
C531        H538   1.085       .  S
C532        C533   1.403       .  A
C532        H539   1.082       .  S
C533        C534   1.411       .  A
C534        H540   1.085   1_556  S
C541        C542   1.405       .  A
C541        C546   1.404       .  A
C542        C543   1.402       .  A
C542        H551   1.084       .  S
C543        C544   1.404       .  A
C543        H552   1.083       .  S
C544        C550   1.413       .  A
C544        C545   1.416       .  A
C545        C547   1.400       .  A
C545        C546   1.408       .  A
C546        H553   1.084       .  S
C547        C548   1.396       .  A
C547        H554   1.083       .  S
C548        C549   1.404       .  A
C548        H555   1.082       .  S
C549        C550   1.407       .  A
C550        H556   1.084       .  S
C557        C558   1.407       .  A
C557        C562   1.402       .  A
C558        C559   1.398   1_556  A
C558        H567   1.083   1_556  S
C559        C560   1.401   1_554  A
C559        H568   1.084       .  S
C560        C566   1.406       .  A
C560        C561   1.417       .  A
C561        C563   1.398       .  A
C561        C562   1.399       .  A
C562        H569   1.085       .  S
C563        C564   1.391       .  A
C563        H570   1.084       .  S
C564        C565   1.402       .  A
C564        H571   1.083       .  S
C565        C566   1.401       .  A
C566        H572   1.085   1_556  S
C573        C574   1.404       .  A
C573        C578   1.411       .  A
C574        C575   1.392       .  A
C574        H583   1.082       .  S
C575        C576   1.398       .  A
C575        H584   1.085       .  S
C576        C582   1.400       .  A
C576        C577   1.415       .  A
C577        C579   1.408       .  A
C577        C578   1.414       .  A
C578        H585   1.084       .  S
C579        C580   1.407       .  A
C579        H586   1.084       .  S
C580        C581   1.405       .  A
C580        H587   1.083       .  S
C581        C582   1.400       .  A
C582        H588   1.083       .  S
C589        C590   1.408   1_554  A
C589        C594   1.407       .  A
C590        C591   1.402       .  A
C590        H599   1.083       .  S
C591        C592   1.403       .  A
C591        H600   1.084       .  S
C592        C598   1.411   1_565  A
C592        C593   1.414   1_556  A
C593        C595   1.399   1_565  A
C593        C594   1.405       .  A
C594        H601   1.085       .  S
C595        C596   1.395       .  A
C595        H602   1.084       .  S
C596        C597   1.408   1_554  A
C596        H603   1.083       .  S
C597        C598   1.408       .  A
C598        H604   1.084       .  S
C605        C606   1.407       .  A
C605        C610   1.403       .  A
C606        C607   1.395       .  A
C606        H615   1.084       .  S
C607        C608   1.400       .  A
C607        H616   1.082   1_554  S
C608        C614   1.402   1_554  A
C608        C609   1.415       .  A
C609        C611   1.401       .  A
C609        C610   1.402       .  A
C610        H617   1.083       .  S
C611        C612   1.395   1_554  A
C611        H618   1.082       .  S
C612        C613   1.405       .  A
C612        H619   1.084       .  S
C613        C614   1.402       .  A
C614        H620   1.083       .  S
C621        C622   1.402       .  A
C621        C626   1.403       .  A
C622        C623   1.399       .  A
C622        H631   1.084       .  S
C623        C624   1.404       .  A
C623        H632   1.084       .  S
C624        C630   1.404       .  A
C624        C625   1.415       .  A
C625        C627   1.403       .  A
C625        C626   1.401       .  A
C626        H633   1.085       .  S
C627        C628   1.396       .  A
C627        H634   1.084       .  S
C628        C629   1.400       .  A
C628        H635   1.084       .  S
C629        C630   1.402       .  A
C630        H636   1.085       .  S
C637        C638   1.407       .  A
C637        C642   1.405   1_556  A
C638        C639   1.399   1_655  A
C638        H647   1.083       .  S
C639        C640   1.402   1_556  A
C639        H648   1.083       .  S
C640        C646   1.410       .  A
C640        C641   1.416   1_455  A
C641        C643   1.401       .  A
C641        C642   1.410       .  A
C642        H649   1.084       .  S
C643        C644   1.398   1_655  A
C643        H650   1.083       .  S
C644        C645   1.408       .  A
C644        H651   1.083       .  S
C645        C646   1.406       .  A
C646        H652   1.084   1_554  S
C653        C654   1.405       .  A
C653        C658   1.410       .  A
C654        C655   1.398       .  A
C654        H663   1.084       .  S
C655        C656   1.402       .  A
C655        H664   1.083       .  S
C656        C662   1.410       .  A
C656        C657   1.415       .  A
C657        C659   1.405   1_554  A
C657        C658   1.416       .  A
C658        H665   1.083       .  S
C659        C660   1.404       .  A
C659        H666   1.083       .  S
C660        C661   1.408       .  A
C660        H667   1.083       .  S
C661        C662   1.408   1_556  A
C662        H668   1.084       .  S
C669        C670   1.406       .  A
C669        C674   1.407       .  A
C670        C671   1.394       .  A
C670        H679   1.084       .  S
C671        C672   1.400       .  A
C671        H680   1.083       .  S
C672        C678   1.399       .  A
C672        C673   1.413       .  A
C673        C675   1.404       .  A
C673        C674   1.404       .  A
C674        H681   1.083       .  S
C675        C676   1.399       .  A
C675        H682   1.083       .  S
C676        C677   1.404       .  A
C676        H683   1.084       .  S
C677        C678   1.406       .  A
C678        H684   1.084       .  S
C685        C686   1.403       .  A
C685        C690   1.406       .  A
C686        C687   1.398       .  A
C686        H695   1.083       .  S
C687        C688   1.402       .  A
C687        H696   1.085       .  S
C688        C694   1.407       .  A
C688        C689   1.416       .  A
C689        C691   1.404       .  A
C689        C690   1.410       .  A
C690        H697   1.086       .  S
C691        C692   1.401       .  A
C691        H698   1.085       .  S
C692        C693   1.404       .  A
C692        H699   1.083       .  S
C693        C694   1.405       .  A
C694        H700   1.086       .  S
C701        C702   1.405       .  A
C701        C706   1.409       .  A
C702        C703   1.387       .  A
C702        H711   1.084       .  S
C703        C704   1.395       .  A
C703        H712   1.084       .  S
C704        C710   1.396       .  A
C704        C705   1.416       .  A
C705        C707   1.408       .  A
C705        C706   1.415       .  A
C706        H713   1.083       .  S
C707        C708   1.407       .  A
C707        H714   1.083       .  S
C708        C709   1.405       .  A
C708        H715   1.083       .  S
C709        C710   1.399       .  A
C710        H716   1.085       .  S
C717        C718   1.402       .  A
C717        C722   1.403       .  A
C718        C719   1.395       .  A
C718        H727   1.083       .  S
C719        C720   1.401       .  A
C719        H728   1.084       .  S
C720        C726   1.401       .  A
C720        C721   1.415       .  A
C721        C723   1.402       .  A
C721        C722   1.404       .  A
C722        H729   1.085       .  S
C723        C724   1.398       .  A
C723        H730   1.084       .  S
C724        C725   1.404       .  A
C724        H731   1.083       .  S
C725        C726   1.403       .  A
C726        H732   1.085       .  S
C733        C734   1.406   1_554  A
C733        C738   1.404       .  A
C734        C735   1.396       .  A
C734        H743   1.083       .  S
C735        C736   1.401   1_455  A
C735        H744   1.084       .  S
C736        C742   1.402       .  A
C736        C737   1.414   1_556  A
C737        C739   1.400       .  A
C737        C738   1.401   1_655  A
C738        H745   1.085       .  S
C739        C740   1.395       .  A
C739        H746   1.084       .  S
C740        C741   1.407   1_554  A
C740        H747   1.083       .  S
C741        C742   1.406       .  A
C742        H748   1.084       .  S
C749        C750   1.405       .  A
C749        C754   1.406       .  A
C750        C751   1.401       .  A
C750        H759   1.083       .  S
C751        C752   1.403   1_565  A
C751        H760   1.085   1_565  S
C752        C758   1.409       .  A
C752        C753   1.415   1_544  A
C753        C755   1.401       .  A
C753        C754   1.406   1_556  A
C754        H761   1.085   1_554  S
C755        C756   1.397   1_565  A
C755        H762   1.085       .  S
C756        C757   1.407       .  A
C756        H763   1.083       .  S
C757        C758   1.407   1_556  A
C758        H764   1.085       .  S
C765        C766   1.403       .  A
C765        C770   1.405       .  A
C766        C767   1.401       .  A
C766        H775   1.083   1_554  S
C767        C768   1.405       .  A
C767        H776   1.084   1_554  S
C768        C774   1.410       .  A
C768        C769   1.415       .  A
C769        C771   1.403       .  A
C769        C770   1.407       .  A
C770        H777   1.085       .  S
C771        C772   1.399       .  A
C771        H778   1.084       .  S
C772        C773   1.402       .  A
C772        H779   1.084       .  S
C773        C774   1.406       .  A
C774        H780   1.085       .  S
C781        C782   1.403       .  A
C781        C786   1.402       .  A
C782        C783   1.403       .  A
C782        H791   1.084       .  S
C783        C784   1.407       .  A
C783        H792   1.083       .  S
C784        C790   1.410       .  A
C784        C785   1.414       .  A
C785        C787   1.400       .  A
C785        C786   1.401       .  A
C786        H793   1.085       .  S
C787        C788   1.394       .  A
C787        H794   1.083       .  S
C788        C789   1.405       .  A
C788        H795   1.084       .  S
C789        C790   1.410       .  A
C790        H796   1.084       .  S
C797        C798   1.407       .  A
C797        C802   1.402       .  A
C798        C799   1.399       .  A
C798        H807   1.083       .  S
C799        C800   1.402       .  A
C799        H808   1.082   1_554  S
C800        C806   1.406       .  A
C800        C801   1.416       .  A
C801        C803   1.398       .  A
C801        C802   1.398       .  A
C802        H809   1.083       .  S
C803        C804   1.390       .  A
C803        H810   1.083       .  S
C804        C805   1.404       .  A
C804        H811   1.085       .  S
C805        C806   1.402       .  A
C806        H812   1.083       .  S
C813        C814   1.402       .  A
C813        C818   1.404       .  A
C814        C815   1.396       .  A
C814        H823   1.084       .  S
C815        C816   1.402       .  A
C815        H824   1.083       .  S
C816        C822   1.402       .  A
C816        C817   1.414       .  A
C817        C819   1.404       .  A
C817        C818   1.406       .  A
C818        H825   1.084       .  S
C819        C820   1.400       .  A
C819        H826   1.083       .  S
C820        C821   1.405       .  A
C820        H827   1.083       .  S
C821        C822   1.407       .  A
C822        H828   1.084       .  S
C829        C830   1.403       .  A
C829        C834   1.405       .  A
C830        C831   1.400       .  A
C830        H839   1.084       .  S
C831        C832   1.404       .  A
C831        H840   1.083       .  S
C832        C838   1.404       .  A
C832        C833   1.414       .  A
C833        C835   1.403       .  A
C833        C834   1.402       .  A
C834        H841   1.085       .  S
C835        C836   1.397       .  A
C835        H842   1.083       .  S
C836        C837   1.403       .  A
C836        H843   1.084       .  S
C837        C838   1.407       .  A
C838        H844   1.084       .  S
C845        C846   1.406       .  A
C845        C850   1.405       .  A
C846        C847   1.399       .  A
C846        H855   1.083       .  S
C847        C848   1.403       .  A
C847        H856   1.083       .  S
C848        C854   1.406       .  A
C848        C849   1.415       .  A
C849        C851   1.399       .  A
C849        C850   1.401       .  A
C850        H857   1.083       .  S
C851        C852   1.393       .  A
C851        H858   1.083       .  S
C852        C853   1.407       .  A
C852        H859   1.084       .  S
C853        C854   1.406       .  A
C854        H860   1.083       .  S
C861        C862   1.404       .  A
C861        C866   1.406       .  A
C862        C863   1.393       .  A
C862        H871   1.083       .  S
C863        C864   1.400       .  A
C863        H872   1.085       .  S
C864        C870   1.401       .  A
C864        C865   1.416       .  A
C865        C867   1.406       .  A
C865        C866   1.410       .  A
C866        H873   1.085       .  S
C867        C868   1.403       .  A
C867        H874   1.085       .  S
C868        C869   1.403       .  A
C868        H875   1.083       .  S
C869        C870   1.401       .  A
C870        H876   1.086       .  S
C877        C878   1.408       .  A
C877        C882   1.408       .  A
C878        C879   1.399       .  A
C878        H887   1.083       .  S
C879        C880   1.401       .  A
C879        H888   1.084       .  S
C880        C886   1.408       .  A
C880        C881   1.414       .  A
C881        C883   1.401       .  A
C881        C882   1.407       .  A
C882        H889   1.085       .  S
C883        C884   1.398       .  A
C883        H890   1.084       .  S
C884        C885   1.408       .  A
C884        H891   1.083       .  S
C885        C886   1.408       .  A
C886        H892   1.085       .  S
C893        C894   1.405       .  A
C893        C898   1.402       .  A
C894        C895   1.403       .  A
C894        H903   1.083       .  S
C895        C896   1.406       .  A
C895        H904   1.083       .  S
C896        C902   1.412       .  A
C896        C897   1.415       .  A
C897        C899   1.399   1_565  A
C897        C898   1.403       .  A
C898        H905   1.085       .  S
C899        C900   1.394       .  A
C899        H906   1.084       .  S
C900        C901   1.407       .  A
C900        H907   1.083       .  S
C901        C902   1.409   1_545  A
C902        H908   1.084       .  S
C909        C910   1.405       .  A
C909        C914   1.406       .  A
C910        C911   1.396       .  A
C910        H919   1.082       .  S
C911        C912   1.401       .  A
C911        H920   1.085       .  S
C912        C918   1.402       .  A
C912        C913   1.414       .  A
C913        C915   1.403       .  A
C913        C914   1.406       .  A
C914        H921   1.086       .  S
C915        C916   1.399       .  A
C915        H922   1.085       .  S
C916        C917   1.405       .  A
C916        H923   1.082       .  S
C917        C918   1.405       .  A
C918        H924   1.086       .  S
C925        C926   1.407       .  A
C925        C930   1.402   1_655  A
C926        C927   1.397       .  A
C926        H935   1.083       .  S
C927        C928   1.401       .  A
C927        H936   1.083       .  S
C928        C934   1.405       .  A
C928        C929   1.416       .  A
C929        C931   1.400   1_655  A
C929        C930   1.401   1_655  A
C930        H937   1.084       .  S
C931        C932   1.393   1_455  A
C931        H938   1.083       .  S
C932        C933   1.404       .  A
C932        H939   1.084       .  S
C933        C934   1.403       .  A
C934        H940   1.084       .  S
C941        C942   1.405       .  A
C941        C946   1.402       .  A
C942        C943   1.399       .  A
C942        H951   1.084       .  S
C943        C944   1.403       .  A
C943        H952   1.083       .  S
C944        C950   1.406       .  A
C944        C945   1.416       .  A
C945        C947   1.401       .  A
C945        C946   1.402       .  A
C946        H953   1.084       .  S
C947        C948   1.395       .  A
C947        H954   1.083       .  S
C948        C949   1.405       .  A
C948        H955   1.084       .  S
C949        C950   1.405       .  A
C950        H956   1.084       .  S
C957        C958   1.404       .  A
C957        C962   1.399       .  A
C958        C959   1.400       .  A
C958        H967   1.084       .  S
C959        C960   1.404       .  A
C959        H968   1.081       .  S
C960        C966   1.406       .  A
C960        C961   1.415       .  A
C961        C963   1.398       .  A
C961        C962   1.398       .  A
C962        H969   1.083       .  S
C963        C964   1.391       .  A
C963        H970   1.082       .  S
C964        C965   1.406       .  A
C964        H971   1.084       .  S
C965        C966   1.407       .  A
C966        H972   1.082       .  S
C973        C974   1.407   1_545  A
C973        C978   1.408       .  A
C974        C975   1.396   1_565  A
C974        H983   1.083       .  S
C975        C976   1.400       .  A
C975        H984   1.083       .  S
C976        C982   1.407       .  A
C976        C977   1.415       .  A
C977        C979   1.403       .  A
C977        C978   1.411       .  A
C978        H985   1.083       .  S
C979        C980   1.401       .  A
C979        H986   1.083       .  S
C980        C981   1.407       .  A
C980        H987   1.083       .  S
C981        C982   1.406       .  A
C982        H988   1.084       .  S
C989        C990   1.404       .  A
C989        C994   1.405       .  A
C990        C991   1.397       .  A
C990        H999   1.083   1_455  S
C991        C992   1.401       .  A
C991       H1000   1.084       .  S
C992        C998   1.405       .  A
C992        C993   1.416       .  A
C993        C995   1.401       .  A
C993        C994   1.403       .  A
C994       H1001   1.085       .  S
C995        C996   1.396       .  A
C995       H1002   1.084       .  S
C996        C997   1.402   1_565  A
C996       H1003   1.082       .  S
C997        C998   1.401   1_545  A
C998       H1004   1.085   1_565  S
C1005      C1006   1.406       .  A
C1005      C1010   1.405       .  A
C1006      C1007   1.394       .  A
C1006      H1015   1.083       .  S
C1007      C1008   1.400       .  A
C1007      H1016   1.084   1_455  S
C1008      C1014   1.402       .  A
C1008      C1009   1.415       .  A
C1009      C1011   1.402       .  A
C1009      C1010   1.405       .  A
C1010      H1017   1.084       .  S
C1011      C1012   1.398       .  A
C1011      H1018   1.083       .  S
C1012      C1013   1.405       .  A
C1012      H1019   1.083       .  S
C1013      C1014   1.404       .  A
C1014      H1020   1.084   1_455  S
C1021      C1022   1.406       .  A
C1021      C1026   1.409       .  A
C1022      C1023   1.398       .  A
C1022      H1031   1.083   1_565  S
C1023      C1024   1.402       .  A
C1023      H1032   1.084       .  S
C1024      C1030   1.408       .  A
C1024      C1025   1.414       .  A
C1025      C1027   1.404       .  A
C1025      C1026   1.412       .  A
C1026      H1033   1.084       .  S
C1027      C1028   1.403       .  A
C1027      H1034   1.084       .  S
C1028      C1029   1.407       .  A
C1028      H1035   1.083       .  S
C1029      C1030   1.408       .  A
C1030      H1036   1.085       .  S
C1037      C1038   1.403       .  A
C1037      C1042   1.403       .  A
C1038      C1039   1.401       .  A
C1038      H1047   1.082       .  S
C1039      C1040   1.404       .  A
C1039      H1048   1.084       .  S
C1040      C1046   1.409       .  A
C1040      C1041   1.416       .  A
C1041      C1043   1.402       .  A
C1041      C1042   1.407       .  A
C1042      H1049   1.085   1_655  S
C1043      C1044   1.398       .  A
C1043      H1050   1.084       .  S
C1044      C1045   1.402       .  A
C1044      H1051   1.083       .  S
C1045      C1046   1.406       .  A
C1046      H1052   1.085       .  S
C1053      C1054   1.400   1_565  A
C1053      C1058   1.399       .  A
C1054      C1055   1.396       .  A
C1054      H1063   1.084       .  S
C1055      C1056   1.403       .  A
C1055      H1064   1.084       .  S
C1056      C1062   1.401       .  A
C1056      C1057   1.416   1_545  A
C1057      C1059   1.401       .  A
C1057      C1058   1.400       .  A
C1058      H1065   1.085       .  S
C1059      C1060   1.395       .  A
C1059      H1066   1.084       .  S
C1060      C1061   1.403   1_565  A
C1060      H1067   1.082       .  S
C1061      C1062   1.402       .  A
C1062      H1068   1.085       .  S
C1069      C1070   1.407   1_455  A
C1069      C1074   1.407       .  A
C1070      C1071   1.391       .  A
C1070      H1079   1.081       .  S
C1071      C1072   1.397       .  A
C1071      H1080   1.086       .  S
C1072      C1078   1.398       .  A
C1072      C1073   1.416   1_655  A
C1073      C1075   1.405       .  A
C1073      C1074   1.408       .  A
C1074      H1081   1.086       .  S
C1075      C1076   1.402   1_455  A
C1075      H1082   1.086       .  S
C1076      C1077   1.402       .  A
C1076      H1083   1.082   1_655  S
C1077      C1078   1.399       .  A
C1078      H1084   1.087       .  S
C1085      C1086   1.407       .  A
C1085      C1090   1.410       .  A
C1086      C1087   1.399       .  A
C1086      H1095   1.083       .  S
C1087      C1088   1.403       .  A
C1087      H1096   1.084       .  S
C1088      C1094   1.407       .  A
C1088      C1089   1.413       .  A
C1089      C1091   1.405       .  A
C1089      C1090   1.409       .  A
C1090      H1097   1.084       .  S
C1091      C1092   1.401       .  A
C1091      H1098   1.084       .  S
C1092      C1093   1.405       .  A
C1092      H1099   1.083       .  S
C1093      C1094   1.407       .  A
C1094      H1100   1.085       .  S
C1101      C1102   1.409       .  A
C1101      C1106   1.408       .  A
C1102      C1103   1.395       .  A
C1102      H1111   1.082       .  S
C1103      C1104   1.399       .  A
C1103      H1112   1.085       .  S
C1104      C1110   1.406       .  A
C1104      C1105   1.415       .  A
C1105      C1107   1.402       .  A
C1105      C1106   1.410       .  A
C1106      H1113   1.085       .  S
C1107      C1108   1.400       .  A
C1107      H1114   1.085       .  S
C1108      C1109   1.408       .  A
C1108      H1115   1.082       .  S
C1109      C1110   1.404       .  A
C1110      H1116   1.086   1_455  S
C1117      C1118   1.404       .  A
C1117      C1122   1.407       .  A
C1118      C1119   1.393       .  A
C1118      H1127   1.083       .  S
C1119      C1120   1.400       .  A
C1119      H1128   1.084       .  S
C1120      C1126   1.401       .  A
C1120      C1121   1.415       .  A
C1121      C1123   1.405       .  A
C1121      C1122   1.409       .  A
C1122      H1129   1.085   1_545  S
C1123      C1124   1.402       .  A
C1123      H1130   1.084       .  S
C1124      C1125   1.405       .  A
C1124      H1131   1.083   1_655  S
C1125      C1126   1.403       .  A
C1126      H1132   1.085       .  S
C1133      C1134   1.401       .  A
C1133      C1138   1.402       .  A
C1134      C1135   1.395       .  A
C1134      H1143   1.083       .  S
C1135      C1136   1.402       .  A
C1135      H1144   1.084       .  S
C1136      C1142   1.401       .  A
C1136      C1137   1.415       .  A
C1137      C1139   1.403       .  A
C1137      C1138   1.403       .  A
C1138      H1145   1.085       .  S
C1139      C1140   1.398       .  A
C1139      H1146   1.084       .  S
C1140      C1141   1.404       .  A
C1140      H1147   1.083   1_545  S
C1141      C1142   1.406       .  A
C1142      H1148   1.085       .  S
C1149      C1150   1.402       .  A
C1149      C1154   1.407       .  A
C1150      C1151   1.395       .  A
C1150      H1159   1.084       .  S
C1151      C1152   1.401       .  A
C1151      H1160   1.083       .  S
C1152      C1158   1.403       .  A
C1152      C1153   1.414       .  A
C1153      C1155   1.406       .  A
C1153      C1154   1.410       .  A
C1154      H1161   1.084       .  S
C1155      C1156   1.403       .  A
C1155      H1162   1.083       .  S
C1156      C1157   1.406       .  A
C1156      H1163   1.083       .  S
C1157      C1158   1.406       .  A
C1158      H1164   1.084       .  S
C1165      C1166   1.407       .  A
C1165      C1170   1.406       .  A
C1166      C1167   1.393       .  A
C1166      H1175   1.084       .  S
C1167      C1168   1.399       .  A
C1167      H1176   1.082       .  S
C1168      C1174   1.400       .  A
C1168      C1169   1.415       .  A
C1169      C1171   1.404       .  A
C1169      C1170   1.407       .  A
C1170      H1177   1.083       .  S
C1171      C1172   1.400       .  A
C1171      H1178   1.082       .  S
C1172      C1173   1.404       .  A
C1172      H1179   1.084       .  S
C1173      C1174   1.403       .  A
C1174      H1180   1.084   1_655  S
C1181      C1182   1.406       .  A
C1181      C1186   1.406       .  A
C1182      C1183   1.397       .  A
C1182      H1191   1.083       .  S
C1183      C1184   1.401       .  A
C1183      H1192   1.084       .  S
C1184      C1190   1.406       .  A
C1184      C1185   1.415       .  A
C1185      C1187   1.401       .  A
C1185      C1186   1.406       .  A
C1186      H1193   1.085       .  S
C1187      C1188   1.397       .  A
C1187      H1194   1.084       .  S
C1188      C1189   1.409       .  A
C1188      H1195   1.083       .  S
C1189      C1190   1.407       .  A
C1190      H1196   1.084       .  S
C1197      C1198   1.402       .  A
C1197      C1202   1.399       .  A
C1198      C1199   1.401       .  A
C1198      H1207   1.083       .  S
C1199      C1200   1.406       .  A
C1199      H1208   1.083       .  S
C1200      C1206   1.406       .  A
C1200      C1201   1.416       .  A
C1201      C1203   1.399       .  A
C1201      C1202   1.396       .  A
C1202      H1209   1.085       .  S
C1203      C1204   1.391       .  A
C1203      H1210   1.084       .  S
C1204      C1205   1.401       .  A
C1204      H1211   1.084       .  S
C1205      C1206   1.403       .  A
C1206      H1212   1.084       .  S
C1213      C1214   1.405       .  A
C1213      C1218   1.404       .  A
C1214      C1215   1.406   1_655  A
C1214      H1223   1.083       .  S
C1215      C1216   1.408   1_455  A
C1215      H1224   1.083       .  S
C1216      C1222   1.414   1_655  A
C1216      C1217   1.415       .  A
C1217      C1219   1.399       .  A
C1217      C1218   1.400       .  A
C1218      H1225   1.085       .  S
C1219      C1220   1.392       .  A
C1219      H1226   1.084       .  S
C1220      C1221   1.404   1_655  A
C1220      H1227   1.084       .  S
C1221      C1222   1.408       .  A
C1222      H1228   1.084       .  S
C1229      C1230   1.405       .  A
C1229      C1234   1.403       .  A
C1230      C1231   1.396   1_545  A
C1230      H1239   1.083   1_545  S
C1231      C1232   1.401       .  A
C1231      H1240   1.084       .  S
C1232      C1238   1.406       .  A
C1232      C1233   1.417   1_565  A
C1233      C1235   1.402       .  A
C1233      C1234   1.406       .  A
C1234      H1241   1.085       .  S
C1235      C1236   1.397       .  A
C1235      H1242   1.084       .  S
C1236      C1237   1.402   1_545  A
C1236      H1243   1.083       .  S
C1237      C1238   1.402       .  A
C1238      H1244   1.085       .  S
C1245      C1246   1.406   1_655  A
C1245      C1250   1.406   1_655  A
C1246      C1247   1.402       .  A
C1246      H1255   1.084   1_455  S
C1247      C1248   1.405       .  A
C1247      H1256   1.082       .  S
C1248      C1254   1.410       .  A
C1248      C1249   1.414       .  A
C1249      C1251   1.401       .  A
C1249      C1250   1.404       .  A
C1250      H1257   1.083       .  S
C1251      C1252   1.395       .  A
C1251      H1258   1.082       .  S
C1252      C1253   1.405       .  A
C1252      H1259   1.084       .  S
C1253      C1254   1.408       .  A
C1254      H1260   1.083       .  S
