geometry optimzed in LAMMPS
_audit_creation_date              2020-12-01 
_audit_creation_method            'lammps2cif' 
_symmetry_space_group_name_H-M    'P1' 
_symmetry_Int_Tables_number       1 
_symmetry_cell_setting            triclinic 
loop_ 
_symmetry_equiv_pos_as_xyz 
  x,y,z 
_cell_length_a                    38.9063937 
_cell_length_b                    39.35027613914588 
_cell_length_c                    70.47447567699768 
_cell_angle_alpha                 89.76903093594112 
_cell_angle_beta                  90.00544150949216 
_cell_angle_gamma                 119.84545992911873 
loop_ 
_atom_site_label 
_atom_site_type_symbol 
_atom_site_fract_x 
_atom_site_fract_y 
_atom_site_fract_z 
_atom_site_charge 
C1          C  0.33235338  0.16596658  0.56873137     0.46500
H2          H  0.33115468  0.16409899  0.58444257    -0.02500
C3          C  0.33434378  0.16897968  0.53185775     0.46500
H4          H  0.33494500  0.17027935  0.51610711    -0.02500
C5          C  0.37439613  0.18814520  0.56069749    -0.16200
C6          C  0.31227085  0.12579464  0.55950793    -0.16000
C7          C  0.31183168  0.18687353  0.56062118    -0.16400
C8          C  0.37587770  0.18961618  0.54119595    -0.16300
C9          C  0.31317982  0.12668455  0.54004468    -0.15900
C10         C  0.31232725  0.18867845  0.54115147    -0.16200
C11         C  0.16719541  0.33454525  0.49456195     0.46500
H12         H  0.16704979  0.33233353  0.51027951    -0.05500
C13         C  0.16822253  0.34000530  0.45782516     0.46500
H14         H  0.16767601  0.34334713  0.44228514    -0.02500
C15         C  0.18845422  0.31483424  0.48433395    -0.16200
C16         C  0.12525643  0.31485924  0.48552250    -0.16000
C17         C  0.18898153  0.37740189  0.48692214    -0.16400
C18         C  0.18827244  0.31759997  0.46480892    -0.16300
C19         C  0.12664833  0.31818159  0.46614597    -0.15900
C20         C  0.18976558  0.37945717  0.46756734    -0.16200
Zn21       Zn  0.11204211  0.30382068  0.68707533     1.49700
Zn22       Zn  0.19091375  0.38850092  0.68639612     1.49400
Zn23       Zn  0.19651979  0.30920455  0.68848209     1.49100
Zn24       Zn  0.16974574  0.33336472  0.65101928     1.49500
O25         O  0.16718556  0.33372220  0.67842421    -1.83100
O26         O  0.09894084  0.33696039  0.70426259    -0.73700
O27         O  0.23762792  0.40260009  0.70338551    -0.73500
O28         O  0.16272435  0.26350200  0.70563417    -0.73100
O29         O  0.15241967  0.39617031  0.70195829    -0.73700
O30         O  0.10266371  0.25654141  0.70260595    -0.73300
O31         O  0.24163893  0.34806707  0.70392578    -0.73900
O32         O  0.20349673  0.31232979  0.64203147    -0.73300
O33         O  0.20918463  0.42673747  0.66424484    -0.74100
O34         O  0.21921049  0.29058479  0.66786711    -0.73500
O35         O  0.19408235  0.38676112  0.63966201    -0.73900
O36         O  0.11587072  0.30114232  0.64002794    -0.73800
O37         O  0.07465920  0.28542731  0.66462699    -0.73600
C38         C  0.11801997  0.37318782  0.70852823     0.78200
C39         C  0.25401339  0.38325170  0.70893605     0.78700
C40         C  0.12586181  0.24555138  0.70945733     0.77600
C41         C  0.22039763  0.29566049  0.64999541     0.78000
C42         C  0.20866566  0.42096596  0.64645632     0.79100
C43         C  0.08104645  0.28539686  0.64689266     0.78200
C44         C  0.99701656  0.99848836  0.78803487     0.46500
H45         H  0.99593542  0.99833160  0.77225268    -0.02500
C46         C  0.99956859  0.99869143  0.82503615     0.46500
H47         H  0.00054219  0.99874790  0.84077901    -0.02500
C48         C  0.45551678  0.47564179  0.79777132    -0.16200
C49         C  0.02438419  0.48370129  0.79645726    -0.16000
C50         C  0.01682114  0.03932608  0.79645569    -0.16400
C51         C  0.45614476  0.47636670  0.81718903    -0.16300
C52         C  0.02450032  0.48257418  0.81588124    -0.15900
C53         C  0.01882365  0.04042293  0.81589544    -0.16200
C54         C  0.16402276  0.33018627  0.86495150     0.46500
H55         H  0.16532407  0.33075760  0.84920635    -0.02500
C56         C  0.16105747  0.32898543  0.90175058     0.46500
H57         H  0.15952015  0.32839492  0.91741580    -0.02500
C58         C  0.13966381  0.34825463  0.87337063    -0.16200
C59         C  0.14503282  0.28815201  0.87370748    -0.16000
C60         C  0.20539856  0.35336666  0.87465935    -0.16400
C61         C  0.13806685  0.34673907  0.89283038    -0.16300
C62         C  0.14444586  0.28842404  0.89319644    -0.15900
C63         C  0.20304459  0.35272731  0.89412037    -0.16200
C64         C  0.33249981  0.16748012  0.12211983     0.46500
H65         H  0.33328919  0.16853619  0.10633247    -0.02500
C66         C  0.33085504  0.16527053  0.15912952     0.46500
H67         H  0.33023403  0.16450386  0.17485743    -0.02500
C68         C  0.29089087  0.14715918  0.13026708    -0.16200
C69         C  0.35241153  0.14604699  0.13053561    -0.16000
C70         C  0.35290841  0.20763656  0.13119995    -0.16400
C71         C  0.28887362  0.14536964  0.14973627    -0.16300
C72         C  0.35188849  0.14424513  0.15004000    -0.15900
C73         C  0.35307928  0.20762388  0.15065267    -0.16200
C74         C  0.00115686  0.49895176  0.19926564     0.46500
H75         H  0.00114123  0.49899993  0.18352412    -0.02500
C76         C  0.00110775  0.49853763  0.23626953     0.46500
H77         H  0.00112792  0.49831910  0.25206768    -0.02500
C78         C  0.47946412  0.02274894  0.21020323    -0.16200
C79         C  0.47594377  0.45605223  0.20868248    -0.16000
C80         C  0.03883619  0.01750622  0.20996815    -0.16400
C81         C  0.48147997  0.02261994  0.22969115    -0.16300
C82         C  0.47710726  0.45725864  0.22812217    -0.15900
C83         C  0.03756496  0.01597165  0.22947620    -0.16200
Zn84       Zn  0.30451969  0.19469298  0.33739008     1.49700
Zn85       Zn  0.33262603  0.17201917  0.37418315     1.49400
Zn86       Zn  0.30672498  0.11438985  0.33941415     1.49100
Zn87       Zn  0.38868026  0.19572283  0.33878276     1.49500
O88         O  0.33321864  0.16922082  0.34704488    -1.83100
O89         O  0.27932067  0.21104288  0.35831194    -0.73700
O90         O  0.30953511  0.12063772  0.38601578    -0.73500
O91         O  0.25854901  0.10085682  0.32359260    -0.73100
O92         O  0.29961790  0.19227052  0.38353380    -0.73700
O93         O  0.26142239  0.15836587  0.31960143    -0.73300
O94         O  0.29088197  0.07826491  0.36222233    -0.73900
O95         O  0.40055970  0.15972321  0.32324927    -0.73300
O96         O  0.38533388  0.20447402  0.38518125    -0.74100
O97         O  0.34234206  0.10455587  0.32256755    -0.73500
O98         O  0.42674259  0.21687428  0.36108402    -0.73900
O99         O  0.39844445  0.24070386  0.32170176    -0.73800
O100        O  0.34165468  0.24178710  0.32227977    -0.73600
C101        C  0.28022862  0.20682087  0.37619731     0.78200
C102        C  0.29371330  0.08598009  0.37987014     0.78700
C103        C  0.24586235  0.12196825  0.31605310     0.77600
C104        C  0.37841769  0.12482421  0.31747885     0.78000
C105        C  0.42013597  0.21905688  0.37861886     0.79100
C106        C  0.37726396  0.25552864  0.31669030     0.78200
Zn107      Zn  0.02723988  0.05183145  0.02039562     1.49700
Zn108      Zn  0.50148222  0.00085226  0.98458334     1.49400
Zn109      Zn  0.02827938  0.47286274  0.02002261     1.49100
Zn110      Zn  0.44191286  0.47183726  0.02166687     1.49500
O111        O  0.50193571  0.00192784  0.01181095    -1.83100
O112        O  0.04459051  0.08955819  0.99800821    -0.73700
O113        O  0.03051428  0.47970665  0.97327502    -0.73500
O114        O  0.07294994  0.00448303  0.03632969    -0.73100
O115        O  0.01680105  0.04877633  0.97388670    -0.73700
O116        O  0.07570083  0.06234766  0.03525318    -0.73300
O117        O  0.04619104  0.45368425  0.99747115    -0.73900
O118        O  0.43245660  0.42818441  0.03960759    -0.73300
O119        O  0.44054990  0.46028618  0.97566258    -0.74100
O120        O  0.48808157  0.42531460  0.03767625    -0.73500
O121        O  0.40102264  0.44868121  0.00045628    -0.73900
O122        O  0.43715554  0.01220409  0.03648735    -0.73800
O123        O  0.49583694  0.06670627  0.03848439    -0.73600
C124        C  0.03657615  0.08314624  0.98041334     0.78200
C125        C  0.04609480  0.46044478  0.97979055     0.78700
C126        C  0.08921376  0.04047442  0.04083758     0.77600
C127        C  0.45348593  0.41309063  0.04438326     0.78000
C128        C  0.40622490  0.44522328  0.98287887     0.79100
C129        C  0.45940013  0.04637110  0.04311782     0.78200
C130        C  0.11110032  0.03721050  0.26343395     0.30800
C131        C  0.13123906  0.02905367  0.27764782    -0.35500
C132        C  0.16312188  0.06171741  0.28610920     0.16800
C133        C  0.17411839  0.09974096  0.28106679     0.22600
C134        C  0.15422328  0.10787830  0.26674712    -0.33700
C135        C  0.12261915  0.07525681  0.25816850     0.16700
O136        O  0.07998790  0.01123980  0.25389298    -0.25700
C137        C  0.07208823  0.03299147  0.24216273     0.06500
C138        C  0.09734928  0.07298818  0.24426012    -0.30600
O139        O  0.20429076  0.12583014  0.29105499    -0.22400
C140        C  0.21293218  0.10427621  0.30255570    -0.02400
C141        C  0.18845032  0.06416594  0.30006378    -0.16800
H142        H  0.12256196  0.99937286  0.28185955     0.21200
H143        H  0.16269669  0.13755566  0.26263958     0.19600
H144        H  0.09660770  0.09674503  0.23684456     0.19500
H145        H  0.18911858  0.04040079  0.30751887     0.15400
C146        C  0.42534248  0.38495774  0.26194980     0.30800
C147        C  0.39659331  0.36517332  0.27590723    -0.35500
C148        C  0.39948054  0.33576206  0.28568862     0.16800
C149        C  0.42881413  0.32657744  0.28210388     0.22600
C150        C  0.45740904  0.34614673  0.26798499    -0.33700
C151        C  0.45432549  0.37540143  0.25806834     0.16700
O152        O  0.42897833  0.41436352  0.25157867    -0.25700
C153        C  0.46017675  0.42320376  0.24072887     0.06500
C154        C  0.47734332  0.40017246  0.24409059    -0.30600
O155        O  0.42566637  0.29787895  0.29296481    -0.22400
C156        C  0.39381350  0.28856193  0.30349484    -0.02400
C157        C  0.37628539  0.31109003  0.29958380    -0.16800
H158        H  0.37364239  0.37236181  0.27898885     0.21200
H159        H  0.48047344  0.33909380  0.26496605     0.19600
H160        H  0.99967956  0.39736351  0.23376264     0.19500
H161        H  0.34990119  0.30908159  0.30585880     0.15400
C162        C  0.43440064  0.09952107  0.28791805     0.30800
C163        C  0.46874530  0.10177203  0.28028648    -0.35500
C164        C  0.46286291  0.07581805  0.26545574     0.16800
C165        C  0.42579266  0.04972920  0.25843889     0.22600
C166        C  0.39144511  0.04723900  0.26617730    -0.33700
C167        C  0.39729881  0.07280728  0.28118235     0.16700
O168        O  0.43291895  0.12129833  0.30171791    -0.25700
C169        C  0.39433205  0.10783785  0.30402387     0.06500
C170        C  0.37079089  0.07763270  0.29168618    -0.30600
O171        O  0.42722936  0.02807563  0.24458535    -0.22400
C172        C  0.46570664  0.04057497  0.24275559    -0.02400
C173        C  0.48924257  0.06988243  0.25544744    -0.16800
H174        H  0.49799697  0.12222774  0.28558167     0.21200
H175        H  0.36217275  0.02662137  0.26094786     0.19600
H176        H  0.33882111  0.06221041  0.29034654     0.19500
H177        H  0.52110730  0.08433022  0.25711838     0.15400
C178        C  0.40063724  0.34043820  0.07837340     0.30800
C179        C  0.36848446  0.31598536  0.09009483    -0.35500
C180        C  0.37347527  0.28923636  0.10130818     0.16800
C181        C  0.40775828  0.28688903  0.10102231     0.22600
C182        C  0.43993961  0.31159079  0.08952156    -0.33700
C183        C  0.43486785  0.33805516  0.07826091     0.16700
O184        O  0.40229123  0.36693904  0.06632924    -0.25700
C185        C  0.43796583  0.38141116  0.05843035     0.06500
C186        C  0.45952040  0.36461752  0.06534576    -0.30600
O187        O  0.40539435  0.25848039  0.11180929    -0.22400
C188        C  0.36933391  0.24271527  0.11920797    -0.02400
C189        C  0.34799172  0.26046308  0.11326631    -0.16800
H190        H  0.34129632  0.31718499  0.09018204     0.21200
H191        H  0.46672946  0.30967655  0.08905794     0.19600
H192        H  0.48909049  0.37111128  0.06142593     0.19500
H193        H  0.31781452  0.25246255  0.11679457     0.15400
C194        C  0.16974272  0.09743340  0.07025662     0.30800
C195        C  0.19814882  0.13178495  0.07916645    -0.35500
C196        C  0.21899363  0.12667140  0.09406307     0.16800
C197        C  0.21229107  0.09028529  0.09985389     0.22600
C198        C  0.18435174  0.05599367  0.09073385    -0.33700
C199        C  0.16367362  0.06112300  0.07575692     0.16700
O200        O  0.14523822  0.09514813  0.05678028    -0.25700
C201        C  0.12354800  0.05693489  0.05347833     0.06500
C202        C  0.13393732  0.03435688  0.06472445    -0.30600
O203        O  0.23542126  0.09241417  0.11398854    -0.22400
C204        C  0.25704833  0.13061375  0.11724779    -0.02400
C205        C  0.24845087  0.15338516  0.10522382    -0.16800
H206        H  0.20329928  0.16041509  0.07493456     0.21200
H207        H  0.17894041  0.02733848  0.09508625     0.19600
H208        H  0.12010454  0.00275089  0.06539022     0.19500
H209        H  0.26262458  0.18500653  0.10452192     0.15400
C210        C  0.37496289  0.09414563  0.09725361     0.30800
C211        C  0.36682939  0.06585343  0.08331863    -0.35500
C212        C  0.39983854  0.06770203  0.07434492     0.16800
C213        C  0.43832813  0.09544843  0.07874354     0.22600
C214        C  0.44651053  0.12335307  0.09296815    -0.33700
C215        C  0.41342767  0.12155601  0.10194494     0.16700
O216        O  0.34850227  0.09886186  0.10677106    -0.25700
C217        C  0.37026618  0.12933507  0.11787550     0.06500
C218        C  0.41083267  0.14479399  0.11548889    -0.30600
O219        O  0.46457848  0.09228461  0.06814060    -0.22400
C220        C  0.44250781  0.06200599  0.05689863    -0.02400
C221        C  0.40207865  0.04550396  0.06021326    -0.16800
H222        H  0.33677105  0.04428996  0.07949016     0.21200
H223        H  0.47654978  0.14535324  0.09656079     0.19600
H224        H  0.43473630  0.16994130  0.12244991     0.19500
H225        H  0.37785167  0.02076161  0.05316631     0.15400
C226        C  0.39729899  0.08995914  0.16487834     0.30800
C227        C  0.41541831  0.06704815  0.16207864    -0.35500
C228        C  0.43209162  0.05987942  0.17820312     0.16800
C229        C  0.43080092  0.07431359  0.19579203     0.22600
C230        C  0.41264129  0.09720859  0.19859272    -0.33700
C231        C  0.39604186  0.10446046  0.18245392     0.16700
O232        O  0.38108676  0.10106175  0.15165343    -0.25700
C233        C  0.36940521  0.12339937  0.16061134     0.06500
C234        C  0.37763617  0.12621220  0.17998138    -0.30600
O235        O  0.44773654  0.06381908  0.20894080    -0.22400
C236        C  0.46005296  0.04208289  0.19988560    -0.02400
C237        C  0.45129441  0.03887867  0.18056507    -0.16800
H238        H  0.41663930  0.05584743  0.14824184     0.21200
H239        H  0.41170724  0.10868442  0.21239895     0.19600
H240        H  0.37218737  0.14283348  0.19055791     0.19500
H241        H  0.95824576  0.02348481  0.16990558     0.15400
C242        C  0.18834702  0.09919226  0.16427888     0.30800
C243        C  0.14719755  0.08318691  0.16172246    -0.35500
C244        C  0.12314203  0.06468950  0.17763423     0.16800
C245        C  0.13878065  0.06219425  0.19476752     0.22600
C246        C  0.17986994  0.07824878  0.19733131    -0.33700
C247        C  0.20390287  0.09683772  0.18146525     0.16700
O248        O  0.21599668  0.11705350  0.15124536    -0.25700
C249        C  0.24997911  0.12640894  0.16003818     0.06500
C250        C  0.24417453  0.11471894  0.17901161    -0.30600
O251        O  0.11133190  0.04452786  0.20786652    -0.22400
C252        C  0.07731408  0.03564773  0.19928986    -0.02400
C253        C  0.08288394  0.04724617  0.18027841    -0.16800
H254        H  0.13485911  0.08508102  0.14826306     0.21200
H255        H  0.19221204  0.07648719  0.21081479     0.19600
H256        H  0.26613453  0.11785055  0.18933234     0.19500
H257        H  0.06084277  0.04446448  0.17008988     0.15400
C258        C  0.41938062  0.35698553  0.19445635     0.30800
C259        C  0.39213365  0.31675768  0.19708739    -0.35500
C260        C  0.38893532  0.29176947  0.18213590     0.16800
C261        C  0.41121416  0.30575547  0.16581944     0.22600
C262        C  0.43854072  0.34590828  0.16322387    -0.33700
C263        C  0.44160131  0.37088393  0.17811882     0.16700
O264        O  0.42752804  0.38513385  0.20675096    -0.25700
C265        C  0.45543854  0.41778311  0.19835495     0.06500
C266        C  0.46513727  0.41065697  0.18033576    -0.30600
O267        O  0.40250786  0.27790735  0.15330743    -0.22400
C268        C  0.37405739  0.24529535  0.16145522    -0.02400
C269        C  0.36468912  0.25210608  0.17962917    -0.16800
H270        H  0.37454354  0.30578403  0.20988869     0.21200
H271        H  0.45590589  0.35691701  0.15036000     0.19600
H272        H  0.99624118  0.43104787  0.17232311     0.19500
H273        H  0.34205788  0.23140339  0.18915037     0.15400
C274        C  0.28972117  0.38397728  0.92090143     0.30800
C275        C  0.32770095  0.39052026  0.92510417    -0.35500
C276        C  0.34073308  0.40237319  0.94371742     0.16800
C277        C  0.31799721  0.40718538  0.95734597     0.22600
C278        C  0.28008979  0.40074112  0.95310776    -0.33700
C279        C  0.26730582  0.38939710  0.93444255     0.16700
O280        O  0.27110308  0.37191090  0.90455189    -0.25700
C281        C  0.23650606  0.37010422  0.90763389     0.06500
C282        C  0.23283089  0.38104563  0.92595282    -0.30600
O283        O  0.33707034  0.42074430  0.97348701    -0.22400
C284        C  0.37251399  0.42484961  0.97005209    -0.02400
C285        C  0.37633984  0.41362455  0.95183427    -0.16800
H286        H  0.34597111  0.38710865  0.91456960     0.21200
H287        H  0.26212687  0.40497587  0.96350929     0.19600
H288        H  0.20795222  0.38184408  0.93233740     0.19500
H289        H  0.40239060  0.41562865  0.94521089     0.15400
C290        C  0.08889874  0.16933221  0.95418967     0.30800
C291        C  0.11955753  0.20727497  0.95032163    -0.35500
C292        C  0.12016763  0.22119738  0.93197514     0.16800
C293        C  0.09238384  0.19967278  0.91833675     0.22600
C294        C  0.06205654  0.16135673  0.92208515    -0.33700
C295        C  0.06160720  0.14725437  0.94043801     0.16700
O296        O  0.08290110  0.15037126  0.97038421    -0.25700
C297        C  0.05151299  0.11564061  0.96690519     0.06500
C298        C  0.03709269  0.11195822  0.94851495    -0.30600
O299        O  0.09754132  0.21965232  0.90250168    -0.22400
C300        C  0.12942671  0.25414501  0.90602469    -0.02400
C301        C  0.14478493  0.25646679  0.92409510    -0.16800
H302        H  0.14134634  0.22486128  0.96093052     0.21200
H303        H  0.04014823  0.14389595  0.91150598     0.19600
H304        H  0.01256296  0.08662648  0.94197226     0.19500
H305        H  0.16995276  0.28103756  0.93074086     0.15400
C306        C  0.10505384  0.40209482  0.91791248     0.30800
C307        C  0.10060632  0.43452270  0.92205108    -0.35500
C308        C  0.08556039  0.43457789  0.94013574     0.16800
C309        C  0.07601793  0.40506922  0.95329749     0.22600
C310        C  0.07987756  0.37245410  0.94904345    -0.33700
C311        C  0.09442890  0.37219462  0.93093240     0.16700
O312        O  0.12038244  0.39669271  0.90229353    -0.25700
C313        C  0.11889930  0.36257553  0.90531264     0.06500
C314        C  0.10277574  0.34601611  0.92284765    -0.30600
O315        O  0.06243791  0.41102306  0.96931569    -0.22400
C316        C  0.06291539  0.44457674  0.96630105    -0.02400
C317        C  0.07685968  0.46053108  0.94839530    -0.16800
H318        H  0.10853572  0.45809365  0.91197061     0.21200
H319        H  0.07223047  0.34900651  0.95916349     0.19600
H320        H  0.09913324  0.31922812  0.92907235     0.19500
H321        H  0.07944902  0.48698345  0.94228142     0.15400
C322        C  0.08264204  0.44197117  0.83119395     0.30800
C323        C  0.11258100  0.43186971  0.82969454    -0.35500
C324        C  0.11121176  0.40460897  0.84308592     0.16800
C325        C  0.08229010  0.38858027  0.85690138     0.22600
C326        C  0.05264663  0.39889921  0.85847637    -0.33700
C327        C  0.05413159  0.42623494  0.84520472     0.16700
O328        O  0.07704452  0.46521994  0.81964263    -0.25700
C329        C  0.04472513  0.46469350  0.82640358     0.06500
C330        C  0.02944525  0.44121065  0.84245089    -0.30600
O331        O  0.08729667  0.36504113  0.86844266    -0.22400
C332        C  0.12003201  0.36593587  0.86218080    -0.02400
C333        C  0.13603300  0.38977130  0.84621940    -0.16800
H334        H  0.13521069  0.44428202  0.81881818     0.21200
H335        H  0.03008607  0.38657216  0.86938879     0.19600
H336        H  0.00267730  0.43422685  0.85017936     0.19500
H337        H  0.16323709  0.39705781  0.83882811     0.15400
C338        C  0.10926681  0.19159936  0.85740947     0.30800
C339        C  0.10007731  0.15225737  0.85905195    -0.35500
C340        C  0.07405107  0.12621687  0.84539239     0.16800
C341        C  0.05856222  0.13833469  0.83101384     0.22600
C342        C  0.06767231  0.17766128  0.82938972    -0.33700
C343        C  0.09354046  0.20365944  0.84311460     0.16700
O344        O  0.13112365  0.22014918  0.86926735    -0.25700
C345        C  0.12940384  0.25108811  0.86266440     0.06500
C346        C  0.10678060  0.24264189  0.84620880    -0.30600
O347        O  0.03610397  0.10958559  0.81937782    -0.22400
C348        C  0.03684208  0.07835559  0.82634337    -0.02400
C349        C  0.05975994  0.08692110  0.84269072    -0.16800
H350        H  0.11206942  0.14257377  0.87033863     0.21200
H351        H  0.05533710  0.18725776  0.81822423     0.19600
H352        H  0.09910950  0.26168758  0.83842860     0.19500
H353        H  0.06652540  0.06757082  0.85078766     0.15400
C354        C  0.35919570  0.41542846  0.83401279     0.30800
C355        C  0.31995728  0.38434644  0.83277979    -0.35500
C356        C  0.29300378  0.38465026  0.84590915     0.16800
C357        C  0.30407714  0.41345878  0.85942885     0.22600
C358        C  0.34343621  0.44450561  0.86072380    -0.33700
C359        C  0.37044262  0.44423984  0.84754880     0.16700
O360        O  0.38834631  0.42202125  0.82236199    -0.25700
C361        C  0.41897992  0.45539066  0.82846340     0.06500
C362        C  0.40971320  0.47042090  0.84427394    -0.30600
O363        O  0.27441086  0.40725076  0.87069891    -0.22400
C364        C  0.24384064  0.37404042  0.86435494    -0.02400
C365        C  0.25360049  0.35888485  0.84878764    -0.16800
H366        H  0.31098331  0.36171974  0.82214509     0.21200
H367        H  0.35233127  0.46731936  0.87125107     0.19600
H368        H  0.42833079  0.49787949  0.85142941     0.19500
H369        H  0.23496193  0.33176044  0.84137658     0.15400
C370        C  0.33300417  0.40552484  0.73908998     0.30800
C371        C  0.36140563  0.39908689  0.74795669    -0.35500
C372        C  0.38146905  0.42385098  0.76310258     0.16800
C373        C  0.37408680  0.45295457  0.76917509     0.22600
C374        C  0.34593061  0.45971511  0.76012909    -0.33700
C375        C  0.32596132  0.43502153  0.74485957     0.16700
O376        O  0.30954313  0.38449792  0.72526304    -0.25700
C377        C  0.28745364  0.40091537  0.72196270     0.06500
C378        C  0.29649679  0.43274768  0.73357821    -0.30600
O379        O  0.39755310  0.47362182  0.78315380    -0.22400
C380        C  0.41992062  0.45730666  0.78600331    -0.02400
C381        C  0.41149389  0.42646309  0.77391574    -0.16800
H382        H  0.36735947  0.37626745  0.74338715     0.21200
H383        H  0.34013773  0.48268009  0.76462652     0.19600
H384        H  0.28203692  0.45016510  0.73428510     0.19500
H385        H  0.42673235  0.40984338  0.77267308     0.15400
C386        C  0.07474327  0.12176078  0.76826234     0.30800
C387        C  0.10980821  0.15250671  0.76062133    -0.35500
C388        C  0.10517391  0.17271643  0.74529518     0.16800
C389        C  0.06853366  0.16361621  0.73815356     0.22600
C390        C  0.03354054  0.13250815  0.74559920    -0.33700
C391        C  0.03819279  0.11207270  0.76077274     0.16700
O392        O  0.07210848  0.09850415  0.78238031    -0.25700
C393        C  0.03342517  0.07365714  0.78383062     0.06500
C394        C  0.01089996  0.08041110  0.77070061    -0.30600
O395        O  0.07096126  0.18748427  0.72439152    -0.22400
C396        C  0.10967471  0.21191148  0.72251374    -0.02400
C397        C  0.13245040  0.20395442  0.73504860    -0.16800
H398        H  0.13868097  0.16014050  0.76623655     0.21200
H399        H  0.00465846  0.12485568  0.73998947     0.19600
H400        H  0.97913604  0.06381885  0.76858229     0.19500
H401        H  0.16432185  0.21983434  0.73682666     0.15400
C402        C  0.04765369  0.42507693  0.76822474     0.30800
C403        C  0.04178374  0.39014233  0.76003350    -0.35500
C404        C  0.06708879  0.39437156  0.74492559     0.16800
C405        C  0.09652403  0.43047855  0.73856787     0.22600
C406        C  0.10226968  0.46535784  0.74668003    -0.33700
C407        C  0.07663562  0.46115256  0.76157077     0.16700
O408        O  0.02637231  0.42811851  0.78195735    -0.25700
C409        C  0.04195405  0.46657368  0.78400551     0.06500
C410        C  0.07308380  0.48859398  0.77167411    -0.30600
O411        O  0.11751745  0.42767277  0.72466684    -0.22400
C412        C  0.10109225  0.38931751  0.72189577    -0.02400
C413        C  0.06943766  0.36706872  0.73402815    -0.16800
H414        H  0.01881681  0.36170801  0.76494858     0.21200
H415        H  0.12494631  0.49380443  0.74162111     0.19600
H416        H  0.09625622  0.01373948  0.77776169     0.19500
H417        H  0.05174166  0.33547941  0.73508742     0.15400
C418        C  0.23687521  0.25198693  0.40132173     0.30800
C419        C  0.22577545  0.28010846  0.40475131    -0.35500
C420        C  0.21708713  0.28368449  0.42364558     0.16800
C421        C  0.21840435  0.26097292  0.43824241     0.22600
C422        C  0.22927323  0.23254941  0.43482525    -0.33700
C423        C  0.23854785  0.22928943  0.41592017     0.16700
O424        O  0.24942750  0.24592311  0.38498802    -0.25700
C425        C  0.25940551  0.21911416  0.38925504     0.06500
C426        C  0.25303771  0.20753315  0.40822157    -0.30600
O427        O  0.20925662  0.26992001  0.45482711    -0.22400
C428        C  0.20252758  0.29918466  0.45078336    -0.02400
C429        C  0.20702194  0.30863928  0.43149957    -0.16800
H430        H  0.22513132  0.29874947  0.39358413     0.21200
H431        H  0.23138077  0.21498364  0.44613909     0.19600
H432        H  0.26009027  0.18746317  0.41547476     0.19500
H433        H  0.20333491  0.33040022  0.42385565     0.15400
C434        C  0.03824872  0.28397509  0.44069562     0.30800
C435        C  0.00029761  0.27755852  0.43651443    -0.35500
C436        C  0.48491450  0.26066318  0.41822493     0.16800
C437        C  0.00741555  0.25448338  0.40536379     0.22600
C438        C  0.04499606  0.26039157  0.40964273    -0.33700
C439        C  0.05923141  0.27526835  0.42767278     0.16700
O440        O  0.05843744  0.29938777  0.45638007    -0.25700
C441        C  0.09254530  0.30024399  0.45323101     0.06500
C442        C  0.09443869  0.28529419  0.43570527    -0.30600
O443        O  0.48906751  0.24428004  0.38810900    -0.22400
C444        C  0.45293579  0.23778673  0.39198327    -0.02400
C445        C  0.44857449  0.24739098  0.41047630    -0.16800
H446        H  0.48035353  0.27620192  0.44744419     0.21200
H447        H  0.06204542  0.25403079  0.39958282     0.19600
H448        H  0.11866315  0.28292906  0.42956228     0.19500
H449        H  0.42221119  0.24425615  0.41729051     0.15400
C450        C  0.26421224  0.00258906  0.40732902     0.30800
C451        C  0.26401544  0.46606878  0.41462168    -0.35500
C452        C  0.24531075  0.45097690  0.43205244     0.16800
C453        C  0.23105607  0.46960360  0.44351248     0.22600
C454        C  0.23592456  0.50621749  0.43839844    -0.33700
C455        C  0.25417013  0.02299935  0.41999636     0.16700
O456        O  0.27858287  0.02149333  0.39127229    -0.25700
C457        C  0.27827060  0.05463902  0.39382216     0.06500
C458        C  0.26363904  0.05741706  0.41140209    -0.30600
O459        O  0.21093460  0.44793578  0.45823954    -0.22400
C460        C  0.21267754  0.41525377  0.45607192    -0.02400
C461        C  0.23424446  0.41595838  0.44025593    -0.16800
H462        H  0.27378788  0.45034686  0.40557054     0.21200
H463        H  0.22467144  0.52115293  0.44709091     0.19600
H464        H  0.26028282  0.08124564  0.41691697     0.19500
H465        H  0.23958156  0.39323743  0.43507782     0.15400
C466        C  0.27510676  0.21403300  0.59942285     0.30800
C467        C  0.26059117  0.21062286  0.61793909    -0.35500
C468        C  0.25640539  0.24201892  0.62427331     0.16800
C469        C  0.26536010  0.27420515  0.61302124     0.22600
C470        C  0.28057413  0.27793752  0.59463267    -0.33700
C471        C  0.28497302  0.24663021  0.58835666     0.16700
O472        O  0.28176001  0.18836948  0.59076033    -0.25700
C473        C  0.29576818  0.20447527  0.57385495     0.06500
C474        C  0.29892455  0.24107632  0.57164630    -0.30600
O475        O  0.25558065  0.29824990  0.62107880    -0.22400
C476        C  0.24084407  0.28159517  0.63779618    -0.02400
C477        C  0.24102355  0.24679051  0.64072819    -0.16800
H478        H  0.25267864  0.18511868  0.62667108     0.21200
H479        H  0.28763424  0.30301848  0.58572930     0.19600
H480        H  0.31117876  0.26131231  0.55984763     0.19500
H481        H  0.22868692  0.22655532  0.65252606     0.15400
C482        C  0.46535323  0.22910902  0.58502225     0.30800
C483        C  0.50519073  0.24024250  0.58805813    -0.35500
C484        C  0.01382831  0.24372063  0.60808753     0.16800
C485        C  0.99214688  0.24932123  0.62200287     0.22600
C486        C  0.45667159  0.24387140  0.61774614    -0.33700
C487        C  0.44252830  0.23149165  0.59936748     0.16700
O488        O  0.44501192  0.21423298  0.56929970    -0.25700
C489        C  0.40879303  0.20731880  0.57365530     0.06500
C490        C  0.40584538  0.21798615  0.59212727    -0.30600
O491        O  0.01242004  0.26363092  0.63776272    -0.22400
C492        C  0.04759966  0.26755709  0.63377922    -0.02400
C493        C  0.05021821  0.25570217  0.61554197    -0.16800
H494        H  0.52355383  0.23859219  0.57696279     0.21200
H495        H  0.43806123  0.24481744  0.62892577     0.19600
H496        H  0.38028819  0.21568170  0.59942236     0.19500
H497        H  0.07546715  0.25631162  0.60872685     0.15400
C498        C  0.26474379  0.05794002  0.59600044     0.30800
C499        C  0.24823227  0.04604731  0.61413589    -0.35500
C500        C  0.24825132  0.51162733  0.62068896     0.16800
C501        C  0.24914691  0.48539662  0.60803234     0.22600
C502        C  0.26273269  0.99605669  0.58990127    -0.33700
C503        C  0.27192905  0.03387890  0.58448109     0.16700
O504        O  0.27695374  0.09258049  0.58839025    -0.25700
C505        C  0.29207400  0.09078878  0.57175641     0.06500
C506        C  0.29016680  0.05501612  0.56863177    -0.30600
O507        O  0.23529681  0.45023282  0.61546436    -0.22400
C508        C  0.22583121  0.45409014  0.63315776    -0.02400
C509        C  0.23351120  0.49173288  0.63729209    -0.16800
H510        H  0.24326449  0.06505111  0.62338524     0.21200
H511        H  0.26868251  0.97745883  0.58083631     0.19600
H512        H  0.30205186  0.04640057  0.55691498     0.19500
H513        H  0.22823159  0.50253897  0.65043054     0.15400
C514        C  0.24950262  0.27798047  0.49991391     0.30800
C515        C  0.28158097  0.27104425  0.49889912    -0.35500
C516        C  0.28133934  0.24408085  0.51206562     0.16800
C517        C  0.25166015  0.22556691  0.52538731     0.22600
C518        C  0.21978473  0.23275503  0.52651647    -0.33700
C519        C  0.21993381  0.25956595  0.51329820     0.16700
O520        O  0.24291567  0.30060698  0.48842683    -0.25700
C521        C  0.20865018  0.29664247  0.49445025     0.06500
C522        C  0.19320392  0.27186677  0.51007817    -0.30600
O523        O  0.25782378  0.20240962  0.53666791    -0.22400
C524        C  0.29188849  0.20601331  0.53056459    -0.02400
C525        C  0.30778236  0.23132492  0.51515094    -0.16800
H526        H  0.30490726  0.28541282  0.48843475     0.21200
H527        H  0.19642975  0.21833175  0.53696119     0.19600
H528        H  0.16548220  0.26285068  0.51738327     0.19500
H529        H  0.33566785  0.24050983  0.50797047     0.15400
C530        C  0.25190641  0.47243766  0.50319871     0.30800
C531        C  0.28627708  0.01126521  0.50132730    -0.35500
C532        C  0.28390475  0.04006939  0.51207734     0.16800
C533        C  0.25085062  0.03193963  0.52267061     0.22600
C534        C  0.21753987  0.99409060  0.52326183    -0.33700
C535        C  0.21921607  0.46481661  0.51395631     0.16700
O536        O  0.24674748  0.44147939  0.49371154    -0.25700
C537        C  0.21038971  0.41337185  0.49848414     0.06500
C538        C  0.19194969  0.42613290  0.51122698    -0.30600
O539        O  0.25583659  0.06228766  0.53269584    -0.22400
C540        C  0.29252216  0.09048045  0.52850342    -0.02400
C541        C  0.31131001  0.07845177  0.51555315    -0.16800
H542        H  0.31232410  0.01785114  0.49299947     0.21200
H543        H  0.19153223  0.98747813  0.53163305     0.19600
H544        H  0.16159410  0.41032977  0.51624342     0.19500
H545        H  0.34177275  0.09455853  0.51071433     0.15400
C546        C  0.03862726  0.28072771  0.51321747     0.30800
C547        C  0.01267515  0.28418768  0.52589013    -0.35500
C548        C  0.47331575  0.25680715  0.52328178     0.16800
C549        C  0.46266012  0.22212919  0.51401222     0.22600
C550        C  0.48990422  0.21824561  0.50241656    -0.33700
C551        C  0.02561198  0.24813617  0.50185996     0.16700
O552        O  0.07604972  0.30748512  0.50991357    -0.25700
C553        C  0.08731887  0.29198270  0.49617975     0.06500
C554        C  0.05720257  0.25480294  0.49083942    -0.30600
O555        O  0.42615852  0.19432486  0.51819638    -0.22400
C556        C  0.41336957  0.21148067  0.53033501    -0.02400
C557        C  0.44128936  0.25048837  0.53377171    -0.16800
H558        H  0.02236704  0.30957711  0.53484188     0.21200
H559        H  0.48207780  0.19129125  0.49507005     0.19600
H560        H  0.05786767  0.23636671  0.47966375     0.19500
H561        H  0.43904113  0.27049546  0.54350188     0.15400
C562        C  0.33263829  0.66790627  0.56741556     0.46500
H563        H  0.33209980  0.66701508  0.58313735    -0.02500
C564        C  0.33376803  0.66921518  0.53056491     0.46500
H565        H  0.33394352  0.66965488  0.51480544    -0.02500
C566        C  0.37436173  0.69051956  0.55915179    -0.16200
C567        C  0.31356163  0.62719605  0.55880283    -0.16000
C568        C  0.31076590  0.68737855  0.55906117    -0.16400
C569        C  0.37567125  0.69146452  0.53965387    -0.16300
C570        C  0.31360210  0.62728232  0.53929793    -0.15900
C571        C  0.31076593  0.68817945  0.53955889    -0.16200
C572        C  0.16762226  0.83559810  0.49259049     0.46500
H573        H  0.16753415  0.83343005  0.50830906    -0.05500
C574        C  0.16817954  0.84064747  0.45586383     0.46500
H575        H  0.16775743  0.84399136  0.44034024    -0.02500
C576        C  0.18804507  0.81508685  0.48233967    -0.16200
C577        C  0.12565327  0.81650738  0.48360947    -0.16000
C578        C  0.18985048  0.87838326  0.48492035    -0.16400
C579        C  0.18767966  0.81776368  0.46282874    -0.16300
C580        C  0.12659835  0.81913781  0.46417631    -0.15900
C581        C  0.19019808  0.88015424  0.46558539    -0.16200
Zn582      Zn  0.11431343  0.80514574  0.68650655     1.49700
Zn583      Zn  0.19308252  0.88966047  0.68658681     1.49400
Zn584      Zn  0.19989408  0.81123188  0.68873844     1.49100
Zn585      Zn  0.17258586  0.83376900  0.65117688     1.49500
O586        O  0.16987324  0.83488469  0.67850780    -1.83100
O587        O  0.10030133  0.83825177  0.70334813    -0.73700
O588        O  0.24152345  0.90592651  0.70265765    -0.73500
O589        O  0.16562187  0.76605551  0.70611642    -0.73100
O590        O  0.15521741  0.89653038  0.70300016    -0.73700
O591        O  0.10531844  0.75845646  0.70236852    -0.73300
O592        O  0.24446395  0.85091256  0.70432550    -0.73900
O593        O  0.20719024  0.81385213  0.64234895    -0.73300
O594        O  0.20784765  0.92686241  0.66431886    -0.74100
O595        O  0.22379828  0.79288785  0.66815509    -0.73500
O596        O  0.19577816  0.88667627  0.64003688    -0.73900
O597        O  0.11927910  0.80179392  0.63951114    -0.73800
O598        O  0.07739703  0.78684426  0.66370900    -0.73600
C599        C  0.11995070  0.87387729  0.70861252     0.78200
C600        C  0.25749935  0.88656298  0.70871724     0.78700
C601        C  0.12862537  0.74809612  0.70972917     0.77600
C602        C  0.22484106  0.79790329  0.65024749     0.78000
C603        C  0.20794203  0.92066819  0.64661748     0.79100
C604        C  0.08424673  0.78681987  0.64601819     0.78200
C605        C  0.00116997  0.50176600  0.78803604     0.46500
H606        H  0.00119070  0.50208664  0.77224373    -0.02500
C607        C  0.00087064  0.50067837  0.82504397     0.46500
H608        H  0.00079925  0.50020176  0.84079445    -0.02500
C609        C  0.46015106  0.97993151  0.79720528    -0.16200
C610        C  0.01962942  0.97945033  0.79602137    -0.16000
C611        C  0.01891298  0.54220151  0.79675982    -0.16400
C612        C  0.45940436  0.97855528  0.81663147    -0.16300
C613        C  0.02117921  0.97875446  0.81547122    -0.15900
C614        C  0.01939419  0.54258414  0.81623083    -0.16200
C615        C  0.16609418  0.83150137  0.86517135     0.46500
H616        H  0.16630955  0.83150690  0.84942257    -0.02500
C617        C  0.16571605  0.83139043  0.90201345     0.46500
H618        H  0.16536375  0.83104011  0.91772144    -0.02500
C619        C  0.14217358  0.84979365  0.87398579    -0.16200
C620        C  0.14744727  0.78974956  0.87420132    -0.16000
C621        C  0.20823292  0.85487031  0.87425138    -0.16400
C622        C  0.14238886  0.84919179  0.89348648    -0.16300
C623        C  0.14805953  0.79067053  0.89366723    -0.15900
C624        C  0.20710965  0.85460637  0.89375887    -0.16200
C625        C  0.33655952  0.67212571  0.12164773     0.46500
H626        H  0.33662355  0.67276192  0.10585385    -0.02500
C627        C  0.33647492  0.67064714  0.15867391     0.46500
H628        H  0.33637972  0.67014386  0.17440270    -0.02500
C629        C  0.29530749  0.65087744  0.13015817    -0.16200
C630        C  0.35793032  0.65208425  0.12990154    -0.16000
C631        C  0.35639305  0.71241314  0.13049454    -0.16400
C632        C  0.29417341  0.64953501  0.14964391    -0.16300
C633        C  0.35828792  0.65054546  0.14939178    -0.15900
C634        C  0.35724024  0.71292958  0.14996536    -0.16200
C635        C  0.99660539  0.99826024  0.20097072     0.46500
H636        H  0.99671626  0.99891860  0.18524358    -0.02500
C637        C  0.99619644  0.99626597  0.23797111     0.46500
H638        H  0.99603495  0.99533721  0.25375986    -0.02500
C639        C  0.47759718  0.51982691  0.20893080    -0.16200
C640        C  0.47904337  0.95977242  0.20997795    -0.16000
C641        C  0.04343820  0.51795633  0.20828880    -0.16400
C642        C  0.47893877  0.51934963  0.22843553    -0.16300
C643        C  0.48134527  0.96120043  0.22944660    -0.15900
C644        C  0.04223972  0.51722265  0.22775633    -0.16200
Zn645      Zn  0.30519202  0.69345972  0.33715730     1.49700
Zn646      Zn  0.33243424  0.67008128  0.37417872     1.49400
Zn647      Zn  0.30733612  0.61259461  0.33957557     1.49100
Zn648      Zn  0.38905704  0.69514793  0.33850060     1.49500
O649        O  0.33356064  0.66773420  0.34696309    -1.83100
O650        O  0.28072369  0.71051564  0.35801089    -0.73700
O651        O  0.31007671  0.61855120  0.38626928    -0.73500
O652        O  0.25860666  0.59917207  0.32400454    -0.73100
O653        O  0.29858725  0.68971386  0.38337960    -0.73700
O654        O  0.26106464  0.65657885  0.32022293    -0.73300
O655        O  0.29227183  0.57595283  0.36264176    -0.73900
O656        O  0.40061404  0.65981748  0.32200311    -0.73300
O657        O  0.38525093  0.70360300  0.38497513    -0.74100
O658        O  0.34311196  0.60374579  0.32212628    -0.73500
O659        O  0.42658409  0.71514161  0.36088338    -0.73900
O660        O  0.40004080  0.74212986  0.32241518    -0.73800
O661        O  0.34175952  0.73994372  0.32130623    -0.73600
C662        C  0.28022747  0.70521452  0.37586231     0.78200
C663        C  0.29492573  0.58376713  0.38031288     0.78700
C664        C  0.24546064  0.62017848  0.31673426     0.77600
C665        C  0.37873182  0.62468768  0.31640013     0.78000
C666        C  0.42001718  0.71795817  0.37835576     0.79100
C667        C  0.37812115  0.75557177  0.31662495     0.78200
Zn668      Zn  0.02864465  0.55442542  0.02064506     1.49700
Zn669      Zn  0.49426295  0.49575611  0.98504110     1.49400
Zn670      Zn  0.02571895  0.96928993  0.02050433     1.49100
Zn671      Zn  0.44695786  0.97572440  0.02050201     1.49500
O672        O  0.49657155  0.49767759  0.01229431    -1.83100
O673        O  0.04713781  0.59178943  0.99826926    -0.73700
O674        O  0.03287702  0.97844641  0.97427129    -0.73500
O675        O  0.07547171  0.50799284  0.03635109    -0.73100
O676        O  0.01560330  0.55185505  0.97423001    -0.73700
O677        O  0.07569183  0.56464002  0.03663180    -0.73300
O678        O  0.04461735  0.94967805  0.99857403    -0.73900
O679        O  0.43665603  0.93044529  0.03755771    -0.73300
O680        O  0.44827879  0.96662118  0.97424947    -0.74100
O681        O  0.49348452  0.92965523  0.03702073    -0.73500
O682        O  0.40776600  0.95515361  0.99863365    -0.73900
O683        O  0.43331796  0.50984637  0.03683937    -0.73800
O684        O  0.49130323  0.56546175  0.03631210    -0.73600
C685        C  0.03730722  0.58594980  0.98084587     0.78200
C686        C  0.04721598  0.95831447  0.98101879     0.78700
C687        C  0.09004811  0.54329071  0.04188516     0.77600
C688        C  0.45815318  0.91621147  0.04290233     0.78000
C689        C  0.41369456  0.95234324  0.98107918     0.79100
C690        C  0.45546776  0.54529541  0.04186063     0.78200
C691        C  0.11629867  0.53775020  0.26115015     0.30800
C692        C  0.13784294  0.52925791  0.27442967    -0.35500
C693        C  0.16591921  0.56111134  0.28500002     0.16800
C694        C  0.17216445  0.59864114  0.28272709     0.22600
C695        C  0.15071701  0.60714788  0.26942076    -0.33700
C696        C  0.12291680  0.57540067  0.25874759     0.16700
O697        O  0.08780436  0.51231597  0.25014080    -0.25700
C698        C  0.07668227  0.53418930  0.24039988     0.06500
C699        C  0.09725762  0.57354681  0.24516188    -0.30600
O700        O  0.20022030  0.62406243  0.29390488    -0.22400
C701        C  0.21218129  0.60259081  0.30343535    -0.02400
C702        C  0.19188907  0.56318675  0.29851045    -0.16800
H703        H  0.13301498  0.49991024  0.27639603     0.21200
H704        H  0.15545026  0.63646740  0.26749516     0.19600
H705        H  0.09287819  0.59694748  0.23984368     0.19500
H706        H  0.19622586  0.53975147  0.30382698     0.15400
C707        C  0.42615189  0.88089378  0.25919243     0.30800
C708        C  0.39198623  0.85188273  0.26817267    -0.35500
C709        C  0.39794674  0.83003103  0.28214971     0.16800
C710        C  0.43495060  0.83590635  0.28689340     0.22600
C711        C  0.46928458  0.86526353  0.27801559    -0.33700
C712        C  0.46332599  0.88736484  0.26408531     0.16700
O713        O  0.42737274  0.90516225  0.24596669    -0.25700
C714        C  0.46577000  0.92726359  0.24226977     0.06500
C715        C  0.48963826  0.91792160  0.25319995    -0.30600
O716        O  0.43323806  0.81094720  0.29993046    -0.22400
C717        C  0.39467602  0.78923306  0.30365187    -0.02400
C718        C  0.37141719  0.79994051  0.29308244    -0.16800
H719        H  0.36268835  0.84670835  0.26451324     0.21200
H720        H  0.49858028  0.87043895  0.28166789     0.19600
H721        H  0.99933559  0.89927539  0.23659959     0.19500
H722        H  0.33942170  0.78659559  0.29303772     0.15400
C723        C  0.43386573  0.60117799  0.28505953     0.30800
C724        C  0.46790128  0.60530231  0.27601767    -0.35500
C725        C  0.46159571  0.57656386  0.26256914     0.16800
C726        C  0.42433411  0.54606036  0.25819315     0.22600
C727        C  0.39039327  0.54185707  0.26727410    -0.33700
C728        C  0.39673760  0.57032909  0.28083766     0.16700
O729        O  0.43273889  0.62450403  0.29816234    -0.25700
C730        C  0.39443191  0.60802707  0.30252540     0.06500
C731        C  0.37070961  0.57429482  0.29217239    -0.30600
O732        O  0.42527850  0.52231178  0.24533886    -0.22400
C733        C  0.46360326  0.53793338  0.24139493    -0.02400
C734        C  0.48767087  0.57142190  0.25178318    -0.16800
H735        H  0.49726954  0.62909080  0.27933106     0.21200
H736        H  0.36106733  0.51782235  0.26410329     0.19600
H737        H  0.33881821  0.55565871  0.29277795     0.19500
H738        H  0.51968203  0.58903855  0.25152661     0.15400
C739        C  0.40391445  0.84203389  0.07586269     0.30800
C740        C  0.37082462  0.81635397  0.08671524    -0.35500
C741        C  0.37628056  0.79129633  0.09893827     0.16800
C742        C  0.41189411  0.79168265  0.10045342     0.22600
C743        C  0.44500058  0.81753635  0.08973713    -0.33700
C744        C  0.43943338  0.84229095  0.07741271     0.16700
O745        O  0.40545648  0.86764484  0.06331238    -0.25700
C746        C  0.44234513  0.88421095  0.05672292     0.06500
C747        C  0.46482448  0.86962873  0.06497550    -0.30600
O748        O  0.40991513  0.76461109  0.11211215    -0.22400
C749        C  0.37269486  0.74695468  0.11817534    -0.02400
C750        C  0.35026687  0.76209099  0.11051028    -0.16800
H751        H  0.34269486  0.81552786  0.08548864     0.21200
H752        H  0.47289319  0.81779401  0.09067148     0.19600
H753        H  0.49551791  0.87825989  0.06233143     0.19500
H754        H  0.31920492  0.75228541  0.11277626     0.15400
C755        C  0.16703254  0.59941139  0.07347086     0.30800
C756        C  0.19342759  0.63317240  0.08347036    -0.35500
C757        C  0.21765447  0.62856259  0.09672732     0.16800
C758        C  0.21587008  0.59310584  0.10005842     0.22600
C759        C  0.18947495  0.55932142  0.09003352    -0.33700
C760        C  0.16548326  0.56402574  0.07662728     0.16700
O761        O  0.14139434  0.59699834  0.06057218    -0.25700
C762        C  0.12338117  0.55965829  0.05525920     0.06500
C763        C  0.13722508  0.53774789  0.06473726    -0.30600
O764        O  0.24205826  0.59580960  0.11272892    -0.22400
C765        C  0.26066688  0.63343546  0.11752447    -0.02400
C766        C  0.24693378  0.65525664  0.10800761    -0.16800
H767        H  0.19514270  0.66113375  0.08099295     0.21200
H768        H  0.18802640  0.53144723  0.09238425     0.19600
H769        H  0.12715724  0.50679351  0.06342267     0.19500
H770        H  0.25764304  0.68637651  0.10896978     0.15400
C771        C  0.37909987  0.59622834  0.09873689     0.30800
C772        C  0.37100759  0.56317430  0.08806640    -0.35500
C773        C  0.40078610  0.56769675  0.07546561     0.16800
C774        C  0.43631949  0.60226044  0.07353560     0.22600
C775        C  0.44441554  0.63546192  0.08420072    -0.33700
C776        C  0.41446931  0.63100432  0.09676605     0.16700
O777        O  0.35496813  0.59870122  0.11101181    -0.25700
C778        C  0.37522291  0.63542626  0.11702450     0.06500
C779        C  0.41227681  0.65706776  0.10863054    -0.30600
O780        O  0.46019867  0.59945562  0.06114486    -0.22400
C781        C  0.43944928  0.56270575  0.05502747    -0.02400
C782        C  0.40229728  0.54167046  0.06342789    -0.16800
H783        H  0.34328803  0.53582868  0.08943426     0.21200
H784        H  0.47207142  0.66284895  0.08278107     0.19600
H785        H  0.43392608  0.68766667  0.11071927     0.19500
H786        H  0.38003580  0.51127370  0.06130910     0.15400
C787        C  0.40970578  0.60152061  0.16368330     0.30800
C788        C  0.43172996  0.58240736  0.16072422    -0.35500
C789        C  0.44011980  0.56695293  0.17693492     0.16800
C790        C  0.42767458  0.57035831  0.19475074     0.22600
C791        C  0.40567357  0.58949338  0.19771986    -0.33700
C792        C  0.39720664  0.60487074  0.18149881     0.16700
O793        O  0.39816510  0.61738003  0.15047680    -0.25700
C794        C  0.37779004  0.63122809  0.15971810     0.06500
C795        C  0.37636188  0.62432822  0.17921367    -0.30600
O796        O  0.43887226  0.55414197  0.20791881    -0.22400
C797        C  0.45887290  0.53991891  0.19864957    -0.02400
C798        C  0.46049974  0.54701701  0.17917683    -0.16800
H799        H  0.44147340  0.57966015  0.14671591     0.21200
H800        H  0.39579018  0.59209100  0.21172109     0.19600
H801        H  0.36165705  0.63184496  0.19006696     0.19500
H802        H  0.95206587  0.51562581  0.16882598     0.15400
C803        C  0.19396003  0.60198652  0.16413191     0.30800
C804        C  0.15299691  0.58618105  0.16134997    -0.35500
C805        C  0.12845607  0.56563102  0.17674500     0.16800
C806        C  0.14345015  0.56106436  0.19366479     0.22600
C807        C  0.18449171  0.57673692  0.19642797    -0.33700
C808        C  0.20908765  0.59744333  0.18101582     0.16700
O809        O  0.22179710  0.62163194  0.15148224    -0.25700
C810        C  0.25558006  0.62995631  0.16011491     0.06500
C811        C  0.24950601  0.61585682  0.17871430    -0.30600
O812        O  0.11549732  0.54254894  0.20645603    -0.22400
C813        C  0.08194850  0.53516221  0.19780139    -0.02400
C814        C  0.08822824  0.54850080  0.17910481    -0.16800
H815        H  0.14115626  0.58992041  0.14810959     0.21200
H816        H  0.19637177  0.57339670  0.20974251     0.19600
H817        H  0.27133966  0.61765328  0.18878076     0.19500
H818        H  0.06673726  0.54756241  0.16906698     0.15400
C819        C  0.42453249  0.86069095  0.19536726     0.30800
C820        C  0.40046289  0.81994650  0.19815251    -0.35500
C821        C  0.39402737  0.79626477  0.18216801     0.16800
C822        C  0.41022006  0.81196377  0.16473385     0.22600
C823        C  0.43412945  0.85268651  0.16192321    -0.33700
C824        C  0.44058089  0.87633642  0.17790184     0.16700
O825        O  0.43524835  0.88780633  0.20849177    -0.25700
C826        C  0.45859945  0.92158920  0.19953862     0.06500
C827        C  0.46271981  0.91618267  0.18030102    -0.30600
O828        O  0.40013498  0.78487866  0.15167272    -0.22400
C829        C  0.37690480  0.75098651  0.16057913    -0.02400
C830        C  0.37227871  0.75632759  0.17976991    -0.16800
H831        H  0.38786213  0.80761390  0.21188281     0.21200
H832        H  0.44687067  0.86500634  0.14821048     0.19600
H833        H  0.98898518  0.93169676  0.17217429     0.19500
H834        H  0.35471817  0.73430439  0.19026576     0.15400
C835        C  0.29552064  0.88883308  0.91962384     0.30800
C836        C  0.33387624  0.89610628  0.92358446    -0.35500
C837        C  0.34806368  0.91024271  0.94181959     0.16800
C838        C  0.32602846  0.91650523  0.95528886     0.22600
C839        C  0.28795216  0.90973238  0.95122654    -0.33700
C840        C  0.27398021  0.89602572  0.93295561     0.16700
O841        O  0.27568524  0.87432811  0.90374995    -0.25700
C842        C  0.24129037  0.87295911  0.90686993     0.06500
C843        C  0.23882084  0.88629749  0.92479791    -0.30600
O844        O  0.34542859  0.93052087  0.97129197    -0.22400
C845        C  0.38041097  0.93351574  0.96794204    -0.02400
C846        C  0.38374398  0.92133433  0.94986775    -0.16800
H847        H  0.35138536  0.89113640  0.91321358     0.21200
H848        H  0.27051520  0.91493943  0.96154351     0.19600
H849        H  0.21430211  0.88785324  0.93112771     0.19500
H850        H  0.40921786  0.92176188  0.94343504     0.15400
C851        C  0.09129713  0.67180721  0.95469546     0.30800
C852        C  0.12384923  0.70835503  0.95027623    -0.35500
C853        C  0.12327487  0.72322759  0.93230653     0.16800
C854        C  0.09264522  0.70383467  0.91958570     0.22600
C855        C  0.06027811  0.66701636  0.92390262    -0.33700
C856        C  0.06101822  0.65193576  0.94183060     0.16700
O857        O  0.08617888  0.65198615  0.97052849    -0.25700
C858        C  0.05237896  0.61893104  0.96766887     0.06500
C859        C  0.03540478  0.61721025  0.95008694    -0.30600
O860        O  0.09754135  0.72418804  0.90394544    -0.22400
C861        C  0.13207667  0.75666905  0.90661048    -0.02400
C862        C  0.14936291  0.75756988  0.92398895    -0.16800
H863        H  0.14800977  0.72410623  0.96016178     0.21200
H864        H  0.03618423  0.65125930  0.91399444     0.19600
H865        H  0.00862608  0.59336583  0.94410372     0.19500
H866        H  0.17674961  0.78074730  0.92987099     0.15400
C867        C  0.11060921  0.90442526  0.91944012     0.30800
C868        C  0.10540671  0.93631056  0.92372963    -0.35500
C869        C  0.09036973  0.93579411  0.94187224     0.16800
C870        C  0.08160061  0.90632384  0.95496405     0.22600
C871        C  0.08646463  0.87438357  0.95059955    -0.33700
C872        C  0.10085454  0.87460249  0.93240976     0.16700
O873        O  0.12526583  0.89914744  0.90357402    -0.25700
C874        C  0.12407646  0.86512276  0.90638359     0.06500
C875        C  0.10900204  0.84859168  0.92404388    -0.30600
O876        O  0.06693900  0.91119829  0.97088432    -0.22400
C877        C  0.06597364  0.94400209  0.96785951    -0.02400
C878        C  0.08016948  0.96062668  0.95009183    -0.16800
H879        H  0.11234305  0.95966124  0.91364446     0.21200
H880        H  0.07918647  0.85083360  0.96060754     0.19600
H881        H  0.10560497  0.82176375  0.93009621     0.19500
H882        H  0.08151813  0.98651959  0.94394929     0.15400
C883        C  0.07589906  0.93329865  0.82962852     0.30800
C884        C  0.10367115  0.92054495  0.82736442    -0.35500
C885        C  0.10580543  0.89767068  0.84219396     0.16800
C886        C  0.08190645  0.88784912  0.85802901     0.22600
C887        C  0.05404064  0.90048790  0.86026238    -0.33700
C888        C  0.05224605  0.92375515  0.84554126     0.16700
O889        O  0.06894113  0.95468255  0.81746311    -0.25700
C890        C  0.04055918  0.95929501  0.82559854     0.06500
C891        C  0.02917260  0.94081724  0.84323330    -0.30600
O892        O  0.09023630  0.86818422  0.87062748    -0.22400
C893        C  0.12024927  0.86559367  0.86302759    -0.02400
C894        C  0.13079104  0.88294840  0.84511785    -0.16800
H895        H  0.12266579  0.92840184  0.81500904     0.21200
H896        H  0.03563327  0.89332724  0.87280196     0.19600
H897        H  0.00625589  0.93893047  0.85260417     0.19500
H898        H  0.15485781  0.88636707  0.83612741     0.15400
C899        C  0.10680798  0.69184840  0.85907416     0.30800
C900        C  0.09486931  0.65190230  0.86133332    -0.35500
C901        C  0.07032113  0.62664532  0.84707305     0.16800
C902        C  0.05859047  0.64003367  0.83166694     0.22600
C903        C  0.07025120  0.67992647  0.82949351    -0.33700
C904        C  0.09477596  0.70517674  0.84376241     0.16700
O905        O  0.12858151  0.72011217  0.87102981    -0.25700
C906        C  0.13036657  0.75213348  0.86353084     0.06500
C907        C  0.11024971  0.74466212  0.84634153    -0.30600
O908        O  0.03769569  0.61196513  0.81946956    -0.22400
C909        C  0.03584558  0.57995303  0.82702196    -0.02400
C910        C  0.05520937  0.58724007  0.84440897    -0.16800
H911        H  0.10415708  0.64131531  0.87336582     0.21200
H912        H  0.06110588  0.69053976  0.81741952     0.19600
H913        H  0.10575612  0.76481383  0.83762751     0.19500
H914        H  0.05967067  0.56710211  0.85315109     0.15400
C915        C  0.36065354  0.91869028  0.83191161     0.30800
C916        C  0.32064885  0.88948825  0.82986844    -0.35500
C917        C  0.29441536  0.88827022  0.84391427     0.16800
C918        C  0.30692825  0.91412329  0.85887406     0.22600
C919        C  0.34696514  0.94303665  0.86101819    -0.33700
C920        C  0.37321758  0.94416530  0.84702920     0.16700
O921        O  0.38957922  0.92640331  0.81987912    -0.25700
C922        C  0.42132637  0.95714925  0.82731511     0.06500
C923        C  0.41299171  0.96915584  0.84441053    -0.30600
O924        O  0.27791595  0.90709576  0.87070721    -0.22400
C925        C  0.24625039  0.87598556  0.86351455    -0.02400
C926        C  0.25464226  0.86330513  0.84661675    -0.16800
H927        H  0.31066452  0.86931138  0.81805878     0.21200
H928        H  0.35692789  0.96324358  0.87281646     0.19600
H929        H  0.43269679  0.99410898  0.85297608     0.19500
H930        H  0.23494597  0.83807418  0.83820634     0.15400
C931        C  0.33461160  0.90814599  0.73996907     0.30800
C932        C  0.36006123  0.89975148  0.75034185    -0.35500
C933        C  0.38339065  0.92751438  0.76382917     0.16800
C934        C  0.38194824  0.96142038  0.76694134     0.22600
C935        C  0.35644873  0.96996654  0.75646171    -0.33700
C936        C  0.33298890  0.94201650  0.74287108     0.16700
O937        O  0.30928818  0.88528048  0.72717493    -0.25700
C938        C  0.29114411  0.90458646  0.72166048     0.06500
C939        C  0.30473383  0.94030534  0.73082016    -0.30600
O940        O  0.40767496  0.98385836  0.77984216    -0.22400
C941        C  0.42524452  0.96367082  0.78499477    -0.02400
C942        C  0.41159294  0.92861828  0.77549008    -0.16800
H943        H  0.36149744  0.87328151  0.74806145     0.21200
H944        H  0.35510249  0.99649161  0.75870082     0.19600
H945        H  0.29420147  0.96099842  0.72938783     0.19500
H946        H  0.42211461  0.90785134  0.77652491     0.15400
C947        C  0.07626144  0.62671630  0.76978502     0.30800
C948        C  0.11127973  0.65869894  0.76287831    -0.35500
C949        C  0.10714937  0.67786727  0.74696850     0.16800
C950        C  0.07094861  0.66679279  0.73866502     0.22600
C951        C  0.03600121  0.63462597  0.74546660    -0.33700
C952        C  0.04021780  0.61509755  0.76116710     0.16700
O953        O  0.07342289  0.60361546  0.78400753    -0.25700
C954        C  0.03513941  0.57690652  0.78438876     0.06500
C955        C  0.01307354  0.58235490  0.77047955    -0.30600
O956        O  0.07375908  0.68957055  0.72430273    -0.22400
C957        C  0.11231741  0.71521188  0.72319831    -0.02400
C958        C  0.13460388  0.70924950  0.73687326    -0.16800
H959        H  0.13981285  0.66771762  0.76932475     0.21200
H960        H  0.00753177  0.62528379  0.73887535     0.19600
H961        H  0.98180954  0.56415542  0.76740959     0.19500
H962        H  0.16620889  0.72634601  0.73937419     0.15400
C963        C  0.03992613  0.92334100  0.76446250     0.30800
C964        C  0.03184325  0.89039035  0.75360409    -0.35500
C965        C  0.06239086  0.89457109  0.74155489     0.16800
C966        C  0.09833781  0.92887046  0.74026443     0.22600
C967        C  0.10637534  0.96185503  0.75105293    -0.33700
C968        C  0.07590825  0.95763318  0.76312898     0.16700
O969        O  0.01556537  0.92606232  0.77653734    -0.25700
C970        C  0.03644271  0.96238933  0.78307766     0.06500
C971        C  0.07399731  0.98355144  0.77517525    -0.30600
O972        O  0.12286732  0.92615815  0.72833347    -0.22400
C973        C  0.10242543  0.88968747  0.72186187    -0.02400
C974        C  0.06455637  0.86860540  0.72957324    -0.16800
H975        H  0.00375076  0.86336802  0.75452709     0.21200
H976        H  0.13448576  0.98886554  0.75014738     0.19600
H977        H  0.08979724  0.52014690  0.77007494     0.19500
H978        H  0.04221929  0.83845999  0.72695383     0.15400
C979        C  0.23519104  0.74978227  0.40005427     0.30800
C980        C  0.22401017  0.77795038  0.40313833    -0.35500
C981        C  0.21469965  0.78166189  0.42189372     0.16800
C982        C  0.21538430  0.75891711  0.43663798     0.22600
C983        C  0.22611198  0.73031193  0.43355208    -0.33700
C984        C  0.23616876  0.72702474  0.41481116     0.16700
O985        O  0.24880740  0.74399211  0.38399242    -0.25700
C986        C  0.25880007  0.71734787  0.38859813     0.06500
C987        C  0.25133765  0.70552636  0.40750632    -0.30600
O988        O  0.20647520  0.76846028  0.45309752    -0.22400
C989        C  0.20064390  0.79819228  0.44885509    -0.02400
C990        C  0.20524868  0.80724925  0.42953698    -0.16800
H991        H  0.22411559  0.79677412  0.39185574     0.21200
H992        H  0.22791088  0.71288755  0.44503528     0.19600
H993        H  0.25817157  0.68554111  0.41500186     0.19500
H994        H  0.20227610  0.82932093  0.42176805     0.15400
C995        C  0.03599040  0.77722551  0.43957814     0.30800
C996        C  0.99606054  0.76526363  0.43630413    -0.35500
C997        C  0.48565364  0.76102327  0.41749773     0.16800
C998        C  0.00520799  0.74762356  0.40417580     0.22600
C999        C  0.04480350  0.75883797  0.40757803    -0.33700
C1000       C  0.05889661  0.77351338  0.42569044     0.16700
O1001       O  0.05614010  0.79335367  0.45521779    -0.25700
C1002       C  0.09229398  0.79972092  0.45123148     0.06500
C1003       C  0.09538866  0.78750968  0.43312289    -0.30600
O1004       O  0.48943523  0.74535697  0.38721775    -0.22400
C1005       C  0.45300634  0.73739930  0.39151912    -0.02400
C1006       C  0.44883819  0.74655419  0.41012268    -0.16800
H1007       H  0.48135889  0.77524812  0.44698582     0.21200
H1008       H  0.06346175  0.75670679  0.39679947     0.19600
H1009       H  0.12085743  0.78876873  0.42624445     0.19500
H1010       H  0.42231532  0.74223216  0.41726069     0.15400
C1011       C  0.26777866  0.50196470  0.40922919     0.30800
C1012       C  0.25894890  0.96582093  0.41183528    -0.35500
C1013       C  0.24209229  0.95098480  0.42954899     0.16800
C1014       C  0.23062521  0.97046543  0.44203408     0.22600
C1015       C  0.23686749  0.00789689  0.43773924    -0.33700
C1016       C  0.25476929  0.52141369  0.42091115     0.16700
O1017       O  0.28278159  0.52057584  0.39309084    -0.25700
C1018       C  0.27979682  0.55260159  0.39458895     0.06500
C1019       C  0.26287779  0.55484654  0.41160371    -0.30600
O1020       O  0.21208469  0.94903006  0.45705597    -0.22400
C1021       C  0.21220820  0.91576043  0.45401333    -0.02400
C1022       C  0.23109836  0.91579925  0.43734923    -0.16800
H1023       H  0.26662819  0.94951090  0.40203983     0.21200
H1024       H  0.22806049  0.02367051  0.44729790     0.19600
H1025       H  0.25706695  0.57767995  0.41628536     0.19500
H1026       H  0.23494205  0.89265424  0.43142376     0.15400
C1027       C  0.27710787  0.71606476  0.59845532     0.30800
C1028       C  0.26618209  0.71433517  0.61753899    -0.35500
C1029       C  0.26159432  0.74547886  0.62389875     0.16800
C1030       C  0.26694783  0.77590428  0.61215818     0.22600
C1031       C  0.27864300  0.77801886  0.59315072    -0.33700
C1032       C  0.28339429  0.74690831  0.58682942     0.16700
O1033       O  0.28376879  0.69046102  0.58976480    -0.25700
C1034       C  0.29434185  0.70477348  0.57227670     0.06500
C1035       C  0.29497324  0.74018510  0.56965766    -0.30600
O1036       O  0.25697984  0.79961319  0.62043958    -0.22400
C1037       C  0.24563940  0.78453178  0.63775969    -0.02400
C1038       C  0.24842720  0.75112732  0.64086996    -0.16800
H1039       H  0.26112817  0.69016220  0.62668835     0.21200
H1040       H  0.28282734  0.80171996  0.58386691     0.19600
H1041       H  0.30467240  0.75928633  0.55737310     0.19500
H1042       H  0.23871084  0.73195321  0.65313275     0.15400
C1043       C  0.46447945  0.72802198  0.58372087     0.30800
C1044       C  0.50357780  0.73689701  0.58701253    -0.35500
C1045       C  0.01843418  0.75039251  0.60623242     0.16800
C1046       C  0.99617504  0.75386486  0.62056262     0.22600
C1047       C  0.45665903  0.74513817  0.61610922    -0.33700
C1048       C  0.44245368  0.73265238  0.59776548     0.16700
O1049       O  0.44409743  0.71347243  0.56800176    -0.25700
C1050       C  0.40876731  0.70922833  0.57203213     0.06500
C1051       C  0.40633892  0.72112284  0.59029743    -0.30600
O1052       O  0.01583020  0.76592902  0.63664920    -0.22400
C1053       C  0.05122893  0.77049875  0.63252638    -0.02400
C1054       C  0.05458658  0.76137952  0.61380488    -0.16800
H1055       H  0.52132078  0.73355834  0.57613371     0.21200
H1056       H  0.43867687  0.74790951  0.62705856     0.19600
H1057       H  0.38135585  0.72064769  0.59731855     0.19500
H1058       H  0.08011831  0.76300113  0.60677990     0.15400
C1059       C  0.27352360  0.56137262  0.59702202     0.30800
C1060       C  0.26013086  0.55042500  0.61572388    -0.35500
C1061       C  0.23958745  0.00845576  0.61968131     0.16800
C1062       C  0.24605572  0.98408091  0.60800451     0.22600
C1063       C  0.26336270  0.49663001  0.58944169    -0.33700
C1064       C  0.27554490  0.53555198  0.58454308     0.16700
O1065       O  0.28585364  0.59607892  0.58940224    -0.25700
C1066       C  0.29603327  0.59275900  0.57176184     0.06500
C1067       C  0.29096770  0.55576077  0.56808530    -0.30600
O1068       O  0.23565966  0.95012904  0.61601259    -0.22400
C1069       C  0.22290061  0.95302087  0.63309189    -0.02400
C1070       C  0.22474847  0.98867700  0.63626850    -0.16800
H1071       H  0.25889721  0.57067348  0.62565054     0.21200
H1072       H  0.26456113  0.47640353  0.57948481     0.19600
H1073       H  0.29862114  0.54536555  0.55550766     0.19500
H1074       H  0.21602994  0.99830684  0.64880989     0.15400
C1075       C  0.24634363  0.77457972  0.49715250     0.30800
C1076       C  0.27787698  0.76687361  0.49598652    -0.35500
C1077       C  0.27745460  0.73991988  0.50920584     0.16800
C1078       C  0.24795130  0.72185499  0.52264862     0.22600
C1079       C  0.21616978  0.72927175  0.52369150    -0.33700
C1080       C  0.21668228  0.75636775  0.51050506     0.16700
O1081       O  0.24087255  0.79850508  0.48608426    -0.25700
C1082       C  0.20715623  0.79556905  0.49228063     0.06500
C1083       C  0.19093505  0.77007857  0.50762792    -0.30600
O1084       O  0.25485244  0.69988141  0.53445128    -0.22400
C1085       C  0.28920376  0.70383847  0.52853650    -0.02400
C1086       C  0.30439199  0.72797790  0.51268350    -0.16800
H1087       H  0.30139616  0.78130610  0.48561868     0.21200
H1088       H  0.19307302  0.71544479  0.53430185     0.19600
H1089       H  0.16347381  0.76174444  0.51503916     0.19500
H1090       H  0.33243799  0.73743042  0.50560954     0.15400
C1091       C  0.25287219  0.97337226  0.50190996     0.30800
C1092       C  0.28503034  0.51030750  0.50195855    -0.35500
C1093       C  0.28277510  0.53966206  0.51219405     0.16800
C1094       C  0.25005973  0.53210826  0.52293307     0.22600
C1095       C  0.21687532  0.49422294  0.52412905    -0.33700
C1096       C  0.21997577  0.96527949  0.51260815     0.16700
O1097       O  0.24770553  0.94282292  0.49197568    -0.25700
C1098       C  0.21118664  0.91451593  0.49649124     0.06500
C1099       C  0.19265116  0.92680444  0.50941402    -0.30600
O1100       O  0.25555486  0.56296779  0.53266556    -0.22400
C1101       C  0.29221933  0.59076050  0.52812103    -0.02400
C1102       C  0.31038990  0.57810093  0.51518281    -0.16800
H1103       H  0.31085503  0.51645153  0.49355106     0.21200
H1104       H  0.19113132  0.48801959  0.53261992     0.19600
H1105       H  0.16227079  0.91078238  0.51438409     0.19500
H1106       H  0.34073570  0.59379481  0.51015638     0.15400
C1107       C  0.03893107  0.78459939  0.51066920     0.30800
C1108       C  0.01207826  0.78904831  0.52226107    -0.35500
C1109       C  0.47457795  0.75801695  0.52247092     0.16800
C1110       C  0.46238935  0.72443430  0.51197203     0.22600
C1111       C  0.48896362  0.72062499  0.49981150    -0.33700
C1112       C  0.02760089  0.74995017  0.50123155     0.16700
O1113       O  0.07572931  0.81192525  0.50668727    -0.25700
C1114       C  0.08820307  0.79458984  0.49451469     0.06500
C1115       C  0.05961008  0.75587294  0.49078241    -0.30600
O1116       O  0.42521353  0.69730886  0.51564079    -0.22400
C1117       C  0.41340435  0.71370630  0.52872536    -0.02400
C1118       C  0.44278222  0.75176588  0.53318283    -0.16800
H1119       H  0.02049021  0.81601738  0.52972163     0.21200
H1120       H  0.47995844  0.69453763  0.49147455     0.19600
H1121       H  0.06144745  0.73587233  0.48089277     0.19500
H1122       H  0.44163002  0.77106384  0.54373860     0.15400
C1123       C  0.82814426  0.16408523  0.56925619     0.46500
H1124       H  0.82651184  0.16174333  0.58496691    -0.02500
C1125       C  0.83207885  0.16875472  0.53242595     0.46500
H1126       H  0.83345684  0.17062081  0.51668982    -0.02500
C1127       C  0.87050727  0.18579559  0.56166986    -0.16200
C1128       C  0.80801731  0.12429130  0.55964406    -0.16000
C1129       C  0.80856315  0.18592232  0.56111858    -0.16400
C1130       C  0.87319744  0.18842594  0.54219894    -0.16300
C1131       C  0.81014297  0.12618740  0.54020398    -0.15900
C1132       C  0.80985835  0.18837619  0.54163764    -0.16200
C1133       C  0.66806971  0.33587331  0.49363740     0.46500
H1134       H  0.66743338  0.33301979  0.50933477    -0.05500
C1135       C  0.66995341  0.34267345  0.45695486     0.46500
H1136       H  0.67037148  0.34704268  0.44146391    -0.02500
C1137       C  0.68791255  0.31498678  0.48322067    -0.16200
C1138       C  0.62651027  0.31825889  0.48436788    -0.16000
C1139       C  0.69144655  0.37887915  0.48640243    -0.16400
C1140       C  0.68827216  0.31862695  0.46374129    -0.16300
C1141       C  0.62813344  0.32190054  0.46498784    -0.15900
C1142       C  0.69246134  0.38143240  0.46711666    -0.16200
Zn1143     Zn  0.61272505  0.30634920  0.68729895     1.49700
Zn1144     Zn  0.69189335  0.39120028  0.68724263     1.49400
Zn1145     Zn  0.69750790  0.31207620  0.68953065     1.49100
Zn1146     Zn  0.67176113  0.33584380  0.65203765     1.49500
O1147       O  0.66824599  0.33635112  0.67929349    -1.83100
O1148       O  0.59863824  0.33988442  0.70354375    -0.73700
O1149       O  0.74108892  0.40722316  0.70279118    -0.73500
O1150       O  0.66390227  0.26792559  0.70735733    -0.73100
O1151       O  0.65406252  0.39785593  0.70364871    -0.73700
O1152       O  0.60356632  0.26012193  0.70373714    -0.73300
O1153       O  0.74353914  0.35190239  0.70416754    -0.73900
O1154       O  0.70579880  0.31513047  0.64330854    -0.73300
O1155       O  0.70605941  0.42874315  0.66507963    -0.74100
O1156       O  0.71908268  0.29143947  0.66916402    -0.73500
O1157       O  0.69473443  0.38875174  0.64083252    -0.73900
O1158       O  0.61880982  0.30410703  0.64039753    -0.73800
O1159       O  0.57623151  0.28745839  0.66442524    -0.73600
C1160       C  0.61849986  0.37540307  0.70891444     0.78200
C1161       C  0.75731399  0.38773692  0.70837919     0.78700
C1162       C  0.62701602  0.24995950  0.71112207     0.77600
C1163       C  0.72133270  0.29720891  0.65132081     0.78000
C1164       C  0.70635563  0.42267088  0.64738117     0.79100
C1165       C  0.58363600  0.28824335  0.64675525     0.78200
C1166       C  0.50122185  0.00142335  0.78839716     0.46500
H1167       H  0.50089338  0.00178861  0.77260836    -0.02500
C1168       C  0.50166743  0.00032686  0.82542982     0.46500
H1169       H  0.50184938  0.99987156  0.84118019    -0.02500
C1170       C  0.96001238  0.47876611  0.79662628    -0.16200
C1171       C  0.51966417  0.48046491  0.79668219    -0.16000
C1172       C  0.52072923  0.04191777  0.79713137    -0.16400
C1173       C  0.95881665  0.47760365  0.81607031    -0.16300
C1174       C  0.52143565  0.48066888  0.81609858    -0.15900
C1175       C  0.52148266  0.04236623  0.81658401    -0.16200
C1176       C  0.66608168  0.33288295  0.86518383     0.46500
H1177       H  0.66690908  0.33351691  0.84943651    -0.02500
C1178       C  0.66405502  0.33125822  0.90200945     0.46500
H1179       H  0.66302612  0.33016153  0.91770962    -0.02500
C1180       C  0.64169871  0.35073605  0.87398758    -0.16200
C1181       C  0.64721600  0.29076146  0.87377341    -0.16000
C1182       C  0.70789181  0.35582875  0.87470794    -0.16400
C1183       C  0.64086934  0.34922323  0.89348962    -0.16300
C1184       C  0.64724921  0.29095919  0.89322174    -0.15900
C1185       C  0.70581796  0.35496341  0.89421539    -0.16200
C1186       C  0.83767623  0.17068875  0.12149468     0.46500
H1187       H  0.83941966  0.17219108  0.10572375    -0.02500
C1188       C  0.83379709  0.16719209  0.15846139     0.46500
H1189       H  0.83240544  0.16605988  0.17418106    -0.02500
C1190       C  0.79553909  0.15100328  0.12913374    -0.16200
C1191       C  0.85599656  0.14804332  0.13011448    -0.16000
C1192       C  0.85855848  0.21041321  0.13086478    -0.16400
C1193       C  0.79246669  0.14824684  0.14858177    -0.16300
C1194       C  0.85451484  0.14574012  0.14958865    -0.15900
C1195       C  0.85704459  0.20970055  0.15028462    -0.16200
C1196       C  0.49767581  0.49790958  0.19960400     0.46500
H1197       H  0.49712727  0.49773017  0.18387176    -0.02500
C1198       C  0.49882482  0.49789664  0.23662409     0.46500
H1199       H  0.49939851  0.49782993  0.25241887    -0.02500
C1200       C  0.97655025  0.01996717  0.21038782    -0.16200
C1201       C  0.97851122  0.45712889  0.20821975    -0.16000
C1202       C  0.54292940  0.02231297  0.20906258    -0.16400
C1203       C  0.97679250  0.01836789  0.22987401    -0.16300
C1204       C  0.97902377  0.45796628  0.22765565    -0.15900
C1205       C  0.54310648  0.02228991  0.22854374    -0.16200
Zn1206     Zn  0.80965555  0.20037101  0.33699874     1.49700
Zn1207     Zn  0.83427178  0.17600266  0.37418340     1.49400
Zn1208     Zn  0.80680554  0.11771966  0.33986153     1.49100
Zn1209     Zn  0.89062257  0.19624133  0.33911267     1.49500
O1210       O  0.83539306  0.17251139  0.34711734    -1.83100
O1211       O  0.78253033  0.21570694  0.35729499    -0.73700
O1212       O  0.81300024  0.12499568  0.38665945    -0.73500
O1213       O  0.75944010  0.10687275  0.32420888    -0.73100
O1214       O  0.79897102  0.19416773  0.38285184    -0.73700
O1215       O  0.76797861  0.16621559  0.31814585    -0.73300
O1216       O  0.79042737  0.08222411  0.36297855    -0.73900
O1217       O  0.89945324  0.15879041  0.32306760    -0.73300
O1218       O  0.88678614  0.21076716  0.38494964    -0.74100
O1219       O  0.84009522  0.10501397  0.32263944    -0.73500
O1220       O  0.92750277  0.21459615  0.36184512    -0.73900
O1221       O  0.90448010  0.24333382  0.32268831    -0.73800
O1222       O  0.84984691  0.24832776  0.32342170    -0.73600
C1223       C  0.78068865  0.20950014  0.37510224     0.78200
C1224       C  0.79537265  0.09016029  0.38061915     0.78700
C1225       C  0.74986630  0.12935528  0.31549869     0.77600
C1226       C  0.87608990  0.12414802  0.31727620     0.78000
C1227       C  0.92122552  0.22094852  0.37887090     0.79100
C1228       C  0.88544190  0.26070316  0.31815682     0.78200
Zn1229     Zn  0.53028572  0.05640048  0.02038078     1.49700
Zn1230     Zn  0.99834210  0.99672959  0.98497897     1.49400
Zn1231     Zn  0.52404077  0.47037800  0.02095202     1.49100
Zn1232     Zn  0.94558952  0.47332207  0.02189137     1.49500
O1233       O  0.99874482  0.99724767  0.01218404    -1.83100
O1234       O  0.54674199  0.09371813  0.99806178    -0.73700
O1235       O  0.52810156  0.47667058  0.97420728    -0.73500
O1236       O  0.57584226  0.00952383  0.03612618    -0.73100
O1237       O  0.51995807  0.05301556  0.97375347    -0.73700
O1238       O  0.57952612  0.06776848  0.03465113    -0.73300
O1239       O  0.54319764  0.45090793  0.99872413    -0.73900
O1240       O  0.93838870  0.43060975  0.03992277    -0.73300
O1241       O  0.94293496  0.46443429  0.97563089    -0.74100
O1242       O  0.99347491  0.42710530  0.03652928    -0.73500
O1243       O  0.90412902  0.44928992  0.00098516    -0.73900
O1244       O  0.93429411  0.00670236  0.03748429    -0.73800
O1245       O  0.99229926  0.06228165  0.03792166    -0.73600
C1246       C  0.53912699  0.08730717  0.98044650     0.78200
C1247       C  0.54377123  0.45773595  0.98098654     0.78700
C1248       C  0.59255576  0.04564391  0.04041320     0.77600
C1249       C  0.95952034  0.41518066  0.04391497     0.78000
C1250       C  0.90882367  0.44763357  0.98319739     0.79100
C1251       C  0.95643599  0.04150992  0.04336979     0.78200
C1252       C  0.61711205  0.04508449  0.26214329     0.30800
C1253       C  0.63685569  0.03717758  0.27657333    -0.35500
C1254       C  0.66827955  0.06991739  0.28509957     0.16800
C1255       C  0.67937476  0.10790624  0.27993709     0.22600
C1256       C  0.65974269  0.11585025  0.26537816    -0.33700
C1257       C  0.62848301  0.08301185  0.25669263     0.16700
O1258       O  0.58625127  0.01882062  0.25265645    -0.25700
C1259       C  0.57828148  0.04011982  0.24071529     0.06500
C1260       C  0.60328205  0.08024622  0.24260793    -0.30600
O1261       O  0.70932126  0.13400573  0.29006796    -0.22400
C1262       C  0.71744863  0.11232075  0.30176397    -0.02400
C1263       C  0.69298974  0.07228766  0.29926235    -0.16800
H1264       H  0.62816273  0.00756141  0.28091935     0.21200
H1265       H  0.66813720  0.14546330  0.26117893     0.19600
H1266       H  0.60214828  0.10372064  0.23511514     0.19500
H1267       H  0.69336752  0.04846403  0.30680977     0.15400
C1268       C  0.93298126  0.39017707  0.26390216     0.30800
C1269       C  0.90880873  0.37425252  0.27985292    -0.35500
C1270       C  0.91139669  0.34413292  0.28904389     0.16800
C1271       C  0.93647715  0.33083474  0.28315828     0.22600
C1272       C  0.96077335  0.34683840  0.26713376    -0.33700
C1273       C  0.95763528  0.37659669  0.25769496     0.16700
O1274       O  0.93592372  0.41930002  0.25354921    -0.25700
C1275       C  0.96204621  0.42386586  0.24027913     0.06500
C1276       C  0.97675320  0.39828251  0.24209371    -0.30600
O1277       O  0.93237494  0.30092066  0.29337626    -0.22400
C1278       C  0.90411658  0.29501126  0.30576683    -0.02400
C1279       C  0.89015708  0.32111651  0.30379806    -0.16800
H1280       H  0.88895431  0.38437330  0.28464277     0.21200
H1281       H  0.98019687  0.33633877  0.26217502     0.19600
H1282       H  0.50366248  0.40238994  0.23763412     0.19500
H1283       H  0.86635376  0.32170311  0.31150667     0.15400
C1284       C  0.93020539  0.09846180  0.28663576     0.30800
C1285       C  0.96434551  0.10188612  0.27814211    -0.35500
C1286       C  0.95814144  0.07397317  0.26430581     0.16800
C1287       C  0.92085140  0.04487172  0.25896230     0.22600
C1288       C  0.88661567  0.04131857  0.26752929    -0.33700
C1289       C  0.89288201  0.06900326  0.28158496     0.16700
O1290       O  0.92927898  0.12147627  0.29991086    -0.25700
C1291       C  0.89090009  0.10632840  0.30362866     0.06500
C1292       C  0.86680571  0.07361235  0.29266438    -0.30600
O1293       O  0.92215295  0.02174578  0.24581618    -0.22400
C1294       C  0.96075600  0.03635123  0.24281681    -0.02400
C1295       C  0.98452268  0.06857160  0.25397933    -0.16800
H1296       H  0.99376470  0.12459684  0.28215540     0.21200
H1297       H  0.85719950  0.01837683  0.26363958     0.19600
H1298       H  0.83476180  0.05624426  0.29264635     0.19500
H1299       H  0.01657531  0.08524961  0.25448984     0.15400
C1300       C  0.91103247  0.34606769  0.07971341     0.30800
C1301       C  0.88266265  0.32635958  0.09389814    -0.35500
C1302       C  0.88495350  0.29600417  0.10312935     0.16800
C1303       C  0.91302261  0.28558083  0.09859420     0.22600
C1304       C  0.94178807  0.30571419  0.08464919    -0.33700
C1305       C  0.93961608  0.33618307  0.07549769     0.16700
O1306       O  0.91385088  0.37476724  0.06896797    -0.25700
C1307       C  0.94473735  0.38342568  0.05784025     0.06500
C1308       C  0.96208298  0.36053401  0.06130356    -0.30600
O1309       O  0.90807664  0.25466291  0.10810768    -0.22400
C1310       C  0.87698923  0.24577380  0.11907747    -0.02400
C1311       C  0.86125811  0.27031335  0.11664997    -0.16800
H1312       H  0.86002512  0.33372708  0.09726557     0.21200
H1313       H  0.96378958  0.29767811  0.08093913     0.19600
H1314       H  0.98737775  0.36159828  0.05431261     0.19500
H1315       H  0.83521183  0.26831081  0.12327240     0.15400
C1316       C  0.67598168  0.10197999  0.06831502     0.30800
C1317       C  0.70844763  0.13621140  0.07531736    -0.35500
C1318       C  0.72689263  0.13137221  0.09136427     0.16800
C1319       C  0.71407901  0.09545103  0.10000758     0.22600
C1320       C  0.68214877  0.06121987  0.09280489    -0.33700
C1321       C  0.66404583  0.06596460  0.07665485     0.16700
O1322       O  0.65300999  0.09973846  0.05406494    -0.25700
C1323       C  0.62664577  0.06171013  0.05312701     0.06500
C1324       C  0.63223434  0.03929262  0.06671065    -0.30600
O1325       O  0.73552374  0.09766460  0.11488358    -0.22400
C1326       C  0.76235648  0.13546432  0.11574747    -0.02400
C1327       C  0.75879757  0.15782058  0.10140605    -0.16800
H1328       H  0.71836065  0.16458495  0.06884565     0.21200
H1329       H  0.67201882  0.03290026  0.09938246     0.19600
H1330       H  0.61417884  0.00817616  0.06945507     0.19500
H1331       H  0.77743220  0.18888094  0.09868572     0.15400
C1332       C  0.87943653  0.09071483  0.10095230     0.30800
C1333       C  0.87247659  0.05700341  0.09111684    -0.35500
C1334       C  0.90223422  0.06167536  0.07841386     0.16800
C1335       C  0.93677793  0.09692146  0.07578043     0.22600
C1336       C  0.94386400  0.13057739  0.08572441    -0.33700
C1337       C  0.91385426  0.12606688  0.09822241     0.16700
O1338       O  0.85478377  0.09348295  0.11280535    -0.25700
C1339       C  0.87374957  0.13103183  0.11769021     0.06500
C1340       C  0.91048527  0.15279368  0.10905642    -0.30600
O1341       O  0.96035373  0.09470006  0.06302526    -0.22400
C1342       C  0.94046653  0.05765587  0.05730049    -0.02400
C1343       C  0.90415184  0.03572063  0.06641110    -0.16800
H1344       H  0.84534705  0.02925776  0.09293356     0.21200
H1345       H  0.97057968  0.15853820  0.08357750     0.19600
H1346       H  0.93119056  0.18387409  0.11032501     0.19500
H1347       H  0.88246888  0.00505652  0.06452833     0.15400
C1348       C  0.90047573  0.09235597  0.16466203     0.30800
C1349       C  0.91851549  0.06942766  0.16192729    -0.35500
C1350       C  0.93382991  0.06117120  0.17818949     0.16800
C1351       C  0.93146190  0.07468298  0.19586224     0.22600
C1352       C  0.91345812  0.09773946  0.19859773    -0.33700
C1353       C  0.89803314  0.10594166  0.18230279     0.16700
O1354       O  0.88489327  0.10382115  0.15133297    -0.25700
C1355       C  0.87214182  0.12524864  0.16028421     0.06500
C1356       C  0.87935891  0.12741714  0.17974850    -0.30600
O1357       O  0.94677315  0.06271381  0.20915419    -0.22400
C1358       C  0.95909480  0.04102309  0.20005129    -0.02400
C1359       C  0.95201634  0.03930794  0.18061359    -0.16800
H1360       H  0.92038010  0.05873146  0.14805472     0.21200
H1361       H  0.91147220  0.10833187  0.21247775     0.19600
H1362       H  0.87284376  0.14321509  0.19035675     0.19500
H1363       H  0.45733492  0.02284373  0.16989747     0.15400
C1364       C  0.69177018  0.10250997  0.16289172     0.30800
C1365       C  0.65078599  0.08814662  0.16058194    -0.35500
C1366       C  0.62652052  0.06852674  0.17629986     0.16800
C1367       C  0.64184765  0.06346719  0.19300426     0.22600
C1368       C  0.68268588  0.07766239  0.19528754    -0.33700
C1369       C  0.70688509  0.09739326  0.17965062     0.16700
O1370       O  0.71968650  0.12155026  0.15007611    -0.25700
C1371       C  0.75331529  0.12882351  0.15862386     0.06500
C1372       C  0.74703764  0.11455930  0.17716856    -0.30600
O1373       O  0.61447424  0.04570938  0.20610917    -0.22400
C1374       C  0.58079561  0.03924919  0.19797786    -0.02400
C1375       C  0.58644483  0.05251913  0.17923277    -0.16800
H1376       H  0.63875474  0.09227921  0.14749582     0.21200
H1377       H  0.69477359  0.07396799  0.20845917     0.19600
H1378       H  0.76864586  0.11572831  0.18719768     0.19500
H1379       H  0.56466890  0.05197174  0.16950290     0.15400
C1380       C  0.91918828  0.35937654  0.19303741     0.30800
C1381       C  0.88955947  0.31973417  0.19494729    -0.35500
C1382       C  0.88890411  0.29404568  0.18094871     0.16800
C1383       C  0.91562496  0.30683158  0.16613911     0.22600
C1384       C  0.94504554  0.34642840  0.16416528    -0.33700
C1385       C  0.94565159  0.37207751  0.17811643     0.16700
O1386       O  0.92628422  0.38785240  0.20496851    -0.25700
C1387       C  0.95761748  0.41941805  0.19764697     0.06500
C1388       C  0.97070240  0.41138941  0.18076743    -0.30600
O1389       O  0.90899371  0.27850195  0.15427129    -0.22400
C1390       C  0.87748080  0.24683870  0.16135263    -0.02400
C1391       C  0.86386153  0.25467059  0.17814501    -0.16800
H1392       H  0.86862938  0.30963324  0.20660574     0.21200
H1393       H  0.96595848  0.35651681  0.15249869     0.19600
H1394       H  0.48739405  0.43135163  0.17066851     0.19500
H1395       H  0.83805877  0.23490874  0.18640866     0.15400
C1396       C  0.79135008  0.38392393  0.92164383     0.30800
C1397       C  0.82860717  0.38898288  0.92625377    -0.35500
C1398       C  0.84212031  0.40250029  0.94463617     0.16800
C1399       C  0.82039222  0.41004906  0.95774546     0.22600
C1400       C  0.78310688  0.40496597  0.95312284    -0.33700
C1401       C  0.76993053  0.39209644  0.93462572     0.16700
O1402       O  0.77274123  0.37125740  0.90532046    -0.25700
C1403       C  0.73922219  0.37196663  0.90779317     0.06500
C1404       C  0.73609967  0.38485624  0.92575083    -0.30600
O1405       O  0.83993610  0.42479892  0.97368773    -0.22400
C1406       C  0.87467835  0.42694483  0.97061220    -0.02400
C1407       C  0.87756813  0.41331459  0.95284838    -0.16800
H1408       H  0.84614618  0.38349344  0.91612068     0.21200
H1409       H  0.76600592  0.41147225  0.96306841     0.19600
H1410       H  0.71188064  0.38758000  0.93162146     0.19500
H1411       H  0.90298885  0.41343302  0.94653653     0.15400
C1412       C  0.59361237  0.17181496  0.95367019     0.30800
C1413       C  0.62606692  0.20828183  0.94912460    -0.35500
C1414       C  0.62530126  0.22276693  0.93109881     0.16800
C1415       C  0.59471671  0.20295615  0.91838997     0.22600
C1416       C  0.56266304  0.16602699  0.92276307    -0.33700
C1417       C  0.56345229  0.15147572  0.94080408     0.16700
O1418       O  0.58813855  0.15277709  0.96977265    -0.25700
C1419       C  0.55420512  0.11980970  0.96708490     0.06500
C1420       C  0.53756824  0.11725688  0.94933565    -0.30600
O1421       O  0.59880016  0.22349051  0.90292317    -0.22400
C1422       C  0.63267600  0.25655170  0.90574040    -0.02400
C1423       C  0.65052191  0.25756238  0.92295230    -0.16800
H1424       H  0.64997338  0.22453408  0.95906854     0.21200
H1425       H  0.53844848  0.15009167  0.91293690     0.19600
H1426       H  0.51075505  0.09324883  0.94346829     0.19500
H1427       H  0.67740970  0.28126656  0.92894865     0.15400
C1428       C  0.60632718  0.40285269  0.91913269     0.30800
C1429       C  0.59993613  0.43411951  0.92320958    -0.35500
C1430       C  0.58497774  0.43373284  0.94137498     0.16800
C1431       C  0.57725448  0.40490472  0.95468199     0.22600
C1432       C  0.58308476  0.37342409  0.95049023    -0.33700
C1433       C  0.59755987  0.37358138  0.93229228     0.16700
O1434       O  0.62153583  0.39789035  0.90335304    -0.25700
C1435       C  0.62178277  0.36459737  0.90637473     0.06500
C1436       C  0.60700215  0.34823770  0.92412637    -0.30600
O1437       O  0.56325345  0.41024112  0.97074133    -0.22400
C1438       C  0.56170305  0.44274160  0.96760562    -0.02400
C1439       C  0.57468576  0.45855218  0.94957657    -0.16800
H1440       H  0.60626760  0.45711676  0.91300025     0.21200
H1441       H  0.57679906  0.35043160  0.96069295     0.19600
H1442       H  0.60453160  0.32194373  0.93037392     0.19500
H1443       H  0.57559436  0.48416328  0.94333310     0.15400
C1444       C  0.57846965  0.43816914  0.83071385     0.30800
C1445       C  0.60756954  0.42705403  0.82875305    -0.35500
C1446       C  0.60818384  0.40206050  0.84289836     0.16800
C1447       C  0.58171018  0.38882170  0.85781537     0.22600
C1448       C  0.55259006  0.39988127  0.85975415    -0.33700
C1449       C  0.55226056  0.42520570  0.84573765     0.16700
O1450       O  0.57212849  0.46055357  0.81891790    -0.25700
C1451       C  0.54161674  0.46237520  0.82645520     0.06500
C1452       C  0.52819557  0.44109999  0.84329237    -0.30600
O1453       O  0.58876403  0.36747845  0.86995505    -0.22400
C1454       C  0.62047391  0.36717232  0.86298009    -0.02400
C1455       C  0.63351142  0.38778205  0.84592876    -0.16800
H1456       H  0.62847422  0.43746607  0.81709295     0.21200
H1457       H  0.53204701  0.38991985  0.87156066     0.19600
H1458       H  0.50314844  0.43637554  0.85189484     0.19500
H1459       H  0.65928998  0.39349881  0.83766146     0.15400
C1460       C  0.61019172  0.19361730  0.85805823     0.30800
C1461       C  0.60081342  0.15425484  0.85996328    -0.35500
C1462       C  0.57479619  0.12797247  0.84638209     0.16800
C1463       C  0.55940759  0.13988500  0.83187404     0.22600
C1464       C  0.56854791  0.17920350  0.83004825    -0.33700
C1465       C  0.59449959  0.20547550  0.84366875     0.16700
O1466       O  0.63250948  0.22247394  0.86966151    -0.25700
C1467       C  0.63115120  0.25346459  0.86282967     0.06500
C1468       C  0.60820522  0.24467538  0.84646214    -0.30600
O1469       O  0.53741467  0.11106634  0.82018763    -0.22400
C1470       C  0.53836062  0.07999931  0.82723752    -0.02400
C1471       C  0.56089564  0.08871891  0.84371997    -0.16800
H1472       H  0.61289580  0.14479583  0.87130489     0.21200
H1473       H  0.55639811  0.18864402  0.81873006     0.19600
H1474       H  0.60070995  0.26368170  0.83852953     0.19500
H1475       H  0.56793067  0.06959579  0.85184650     0.15400
C1476       C  0.85992176  0.41851347  0.83170415     0.30800
C1477       C  0.81974540  0.38956650  0.82990309    -0.35500
C1478       C  0.79413703  0.38809362  0.84437203     0.16800
C1479       C  0.80735392  0.41333292  0.85957697     0.22600
C1480       C  0.84757959  0.44203088  0.86146652    -0.33700
C1481       C  0.87319403  0.44350216  0.84700779     0.16700
O1482       O  0.88838775  0.42631811  0.81932962    -0.25700
C1483       C  0.92058955  0.45662220  0.82674253     0.06500
C1484       C  0.91293000  0.46829448  0.84411875    -0.30600
O1485       O  0.77867244  0.40636737  0.87166853    -0.22400
C1486       C  0.74644976  0.37609183  0.86428593    -0.02400
C1487       C  0.75428371  0.36372153  0.84714192    -0.16800
H1488       H  0.80913821  0.36982299  0.81792758     0.21200
H1489       H  0.85813556  0.46192818  0.87338415     0.19600
H1490       H  0.93313549  0.49277545  0.85280528     0.19500
H1491       H  0.73400994  0.33927082  0.83845861     0.15400
C1492       C  0.83635861  0.40907434  0.73830858     0.30800
C1493       C  0.86102363  0.39989997  0.74891445    -0.35500
C1494       C  0.88479974  0.42766557  0.76233710     0.16800
C1495       C  0.88473544  0.46239061  0.76499525     0.22600
C1496       C  0.86042532  0.47188897  0.75414629    -0.33700
C1497       C  0.83623539  0.44381367  0.74080088     0.16700
O1498       O  0.80971307  0.38586237  0.72605381    -0.25700
C1499       C  0.79222332  0.40582581  0.72054216     0.06500
C1500       C  0.80765128  0.44233968  0.72908337    -0.30600
O1501       O  0.90986963  0.48425508  0.77819603    -0.22400
C1502       C  0.92558792  0.46287754  0.78412778    -0.02400
C1503       C  0.91152282  0.42764391  0.77469021    -0.16800
H1504       H  0.86100605  0.37257085  0.74710667     0.21200
H1505       H  0.85994685  0.49891462  0.75618707     0.19600
H1506       H  0.79780701  0.46357143  0.72765229     0.19500
H1507       H  0.92076595  0.40597639  0.77626454     0.15400
C1508       C  0.57804720  0.12492032  0.76918248     0.30800
C1509       C  0.61281554  0.15522521  0.76108264    -0.35500
C1510       C  0.60751148  0.17688889  0.74668339     0.16800
C1511       C  0.57056436  0.16949324  0.74080476     0.22600
C1512       C  0.53584201  0.13897001  0.74876627    -0.33700
C1513       C  0.54112244  0.11710983  0.76301767     0.16700
O1514       O  0.57594887  0.10038960  0.78252744    -0.25700
C1515       C  0.53723013  0.07667745  0.78481702     0.06500
C1516       C  0.51412624  0.08539961  0.77301067    -0.30600
O1517       O  0.57247628  0.19389533  0.72744487    -0.22400
C1518       C  0.61113262  0.21703264  0.72459101    -0.02400
C1519       C  0.63438964  0.20772900  0.73610384    -0.16800
H1520       H  0.64194892  0.16134653  0.76561840     0.21200
H1521       H  0.50670036  0.13261357  0.74411713     0.19600
H1522       H  0.48214106  0.07005434  0.77177012     0.19500
H1523       H  0.66640852  0.22211642  0.73682199     0.15400
C1524       C  0.54037307  0.42404554  0.76583758     0.30800
C1525       C  0.53233036  0.39085577  0.75524231    -0.35500
C1526       C  0.56189642  0.39558951  0.74242419     0.16800
C1527       C  0.59694558  0.43055936  0.74024619     0.22600
C1528       C  0.60492616  0.46378154  0.75076991    -0.33700
C1529       C  0.57538971  0.45905050  0.76356660     0.16700
O1530       O  0.51655279  0.42651397  0.77829906    -0.25700
C1531       C  0.53683294  0.46339153  0.78411391     0.06500
C1532       C  0.57342623  0.48517276  0.77540013    -0.30600
O1533       O  0.62087972  0.42815535  0.72786155    -0.22400
C1534       C  0.60090573  0.39124925  0.72198348    -0.02400
C1535       C  0.56391782  0.36956141  0.73048083    -0.16800
H1536       H  0.50495102  0.36331832  0.75687175     0.21200
H1537       H  0.63228391  0.49133760  0.74912502     0.19600
H1538       H  0.58958313  0.01773415  0.77089254     0.19500
H1539       H  0.54228656  0.33891801  0.72854126     0.15400
C1540       C  0.73597313  0.25379173  0.39970204     0.30800
C1541       C  0.72693322  0.28324735  0.40350399    -0.35500
C1542       C  0.71659608  0.28535233  0.42228760     0.16800
C1543       C  0.71436383  0.25998503  0.43640390     0.22600
C1544       C  0.72297266  0.23013453  0.43258117    -0.33700
C1545       C  0.73401430  0.22838951  0.41382208     0.16700
O1546       O  0.75047402  0.24915894  0.38363618    -0.25700
C1547       C  0.75801782  0.22053957  0.38760154     0.06500
C1548       C  0.74807639  0.20631934  0.40607603    -0.30600
O1549       O  0.70487885  0.26829661  0.45305357    -0.22400
C1550       C  0.70157707  0.29980803  0.44954397    -0.02400
C1551       C  0.70858774  0.31141485  0.43055627    -0.16800
H1552       H  0.72940469  0.30411709  0.39277356     0.21200
H1553       H  0.72254911  0.21062303  0.44357153     0.19600
H1554       H  0.75304082  0.18463689  0.41312619     0.19500
H1555       H  0.70814696  0.33554068  0.42345160     0.15400
C1556       C  0.53849399  0.28486586  0.43993978     0.30800
C1557       C  0.49889297  0.27415778  0.43657729    -0.35500
C1558       C  0.98596241  0.26257045  0.41841312     0.16800
C1559       C  0.50823270  0.25803766  0.40415905     0.22600
C1560       C  0.54749554  0.26821662  0.40760743    -0.33700
C1561       C  0.56130622  0.28145159  0.42590169     0.16700
O1562       O  0.55833432  0.29908417  0.45585663    -0.25700
C1563       C  0.59414488  0.30452630  0.45183849     0.06500
C1564       C  0.59732118  0.29359145  0.43347489    -0.30600
O1565       O  0.98818570  0.24021861  0.38939384    -0.22400
C1566       C  0.95391320  0.23897641  0.39228712    -0.02400
C1567       C  0.95081001  0.25252677  0.41005835    -0.16800
H1568       H  0.98333377  0.28404897  0.44655937     0.21200
H1569       H  0.56600453  0.26594355  0.39678929     0.19600
H1570       H  0.62250498  0.29434342  0.42653749     0.19500
H1571       H  0.92587283  0.25377184  0.41608249     0.15400
C1572       C  0.76456398  0.00541964  0.40729684     0.30800
C1573       C  0.76333278  0.46549238  0.41365272    -0.35500
C1574       C  0.74542752  0.45145458  0.43129977     0.16800
C1575       C  0.72717688  0.46800628  0.44150515     0.22600
C1576       C  0.72682404  0.50134112  0.43485102    -0.33700
C1577       C  0.75775025  0.02666113  0.42087711     0.16700
O1578       O  0.77789340  0.02451388  0.39119879    -0.25700
C1579       C  0.78032306  0.05870069  0.39458706     0.06500
C1580       C  0.76838641  0.06191576  0.41279690    -0.30600
O1581       O  0.70830377  0.44713006  0.45656864    -0.22400
C1582       C  0.71504866  0.41724334  0.45593095    -0.02400
C1583       C  0.73852482  0.41885114  0.44079002    -0.16800
H1584       H  0.77659009  0.45150977  0.40563723     0.21200
H1585       H  0.71256850  0.51464002  0.44261496     0.19600
H1586       H  0.76745012  0.08652993  0.41904228     0.19500
H1587       H  0.74676507  0.39745503  0.43661709     0.15400
C1588       C  0.77372918  0.21404090  0.60036155     0.30800
C1589       C  0.76051199  0.21127037  0.61912177    -0.35500
C1590       C  0.75655377  0.24279973  0.62550438     0.16800
C1591       C  0.76471737  0.27455496  0.61408859     0.22600
C1592       C  0.77869165  0.27767035  0.59547831    -0.33700
C1593       C  0.78270634  0.24619285  0.58913125     0.16700
O1594       O  0.77986755  0.18814222  0.59158364    -0.25700
C1595       C  0.79268404  0.20364473  0.57444266     0.06500
C1596       C  0.79548753  0.24009112  0.57218892    -0.30600
O1597       O  0.75524555  0.29875537  0.62219951    -0.22400
C1598       C  0.74139688  0.28267438  0.63910991    -0.02400
C1599       C  0.74191758  0.24803198  0.64212857    -0.16800
H1600       H  0.75326308  0.18608386  0.62797821     0.21200
H1601       H  0.78502073  0.30239809  0.58645445     0.19600
H1602       H  0.80698791  0.26001406  0.56024041     0.19500
H1603       H  0.73019612  0.22814716  0.65408648     0.15400
C1604       C  0.95945946  0.22002603  0.58688676     0.30800
C1605       C  0.99853489  0.22883486  0.59010785    -0.35500
C1606       C  0.51938244  0.25258111  0.60650177     0.16800
C1607       C  0.49608317  0.25397794  0.62092967     0.22600
C1608       C  0.95326308  0.24101414  0.61868121    -0.33700
C1609       C  0.93808454  0.22634143  0.60067382     0.16700
O1610       O  0.93896178  0.20520557  0.57123704    -0.25700
C1611       C  0.90415904  0.20237773  0.57501402     0.06500
C1612       C  0.90203617  0.21521513  0.59310896    -0.30600
O1613       O  0.51510030  0.26552681  0.63717812    -0.22400
C1614       C  0.55112729  0.27185106  0.63307159    -0.02400
C1615       C  0.55557914  0.26444594  0.61420071    -0.16800
H1616       H  0.01578944  0.22439651  0.57935976     0.21200
H1617       H  0.93604533  0.24564947  0.62937996     0.19600
H1618       H  0.87752216  0.21629402  0.59977006     0.19500
H1619       H  0.58179046  0.26762098  0.60718610     0.15400
C1620       C  0.76072328  0.05519017  0.59574433     0.30800
C1621       C  0.74533426  0.04311888  0.61404763    -0.35500
C1622       C  0.73920791  0.51090151  0.62045796     0.16800
C1623       C  0.74473381  0.48599529  0.60872405     0.22600
C1624       C  0.75782839  0.99313851  0.58886974    -0.33700
C1625       C  0.76696116  0.03115017  0.58375837     0.16700
O1626       O  0.77304382  0.09012336  0.58844883    -0.25700
C1627       C  0.78738815  0.08866322  0.57153895     0.06500
C1628       C  0.78471549  0.05266948  0.56791746    -0.30600
O1629       O  0.73353512  0.45183776  0.61668752    -0.22400
C1630       C  0.72118937  0.45503047  0.63381524    -0.02400
C1631       C  0.72406172  0.49115572  0.63705522    -0.16800
H1632       H  0.74122084  0.06214049  0.62367188     0.21200
H1633       H  0.76311259  0.97458639  0.57944594     0.19600
H1634       H  0.79622771  0.04419809  0.55600953     0.19500
H1635       H  0.71603537  0.50119860  0.64967557     0.15400
C1636       C  0.74636034  0.27501290  0.49847452     0.30800
C1637       C  0.77800900  0.26743868  0.49758196    -0.35500
C1638       C  0.77802281  0.24152596  0.51130659     0.16800
C1639       C  0.74886844  0.22440621  0.52497611     0.22600
C1640       C  0.71723016  0.23200967  0.52588421    -0.33700
C1641       C  0.71725356  0.25796361  0.51217268     0.16700
O1642       O  0.74025395  0.29773692  0.48684489    -0.25700
C1643       C  0.70678551  0.29526361  0.49309977     0.06500
C1644       C  0.69130199  0.27125082  0.50897865    -0.30600
O1645       O  0.75549699  0.20242353  0.53686860    -0.22400
C1646       C  0.78938506  0.20547636  0.53083282    -0.02400
C1647       C  0.80457778  0.22909901  0.51481377    -0.16800
H1648       H  0.80108948  0.28093317  0.48693904     0.21200
H1649       H  0.69438537  0.21885840  0.53665420     0.19600
H1650       H  0.66428721  0.26374073  0.51662295     0.19500
H1651       H  0.83210840  0.23745286  0.50746240     0.15400
C1652       C  0.75356262  0.47388125  0.50299419     0.30800
C1653       C  0.78818388  0.01063270  0.50348711    -0.35500
C1654       C  0.78440249  0.03991181  0.51301635     0.16800
C1655       C  0.74953387  0.03266551  0.52163241     0.22600
C1656       C  0.71567980  0.99528487  0.52132111    -0.33700
C1657       C  0.72123336  0.46516080  0.51427844     0.16700
O1658       O  0.74864483  0.44346573  0.49309885    -0.25700
C1659       C  0.71283679  0.41460897  0.49815011     0.06500
C1660       C  0.69453616  0.42634639  0.51148246    -0.30600
O1661       O  0.75325833  0.06325548  0.53097583    -0.22400
C1662       C  0.79090128  0.09072260  0.52824331    -0.02400
C1663       C  0.81167882  0.07798506  0.51701839    -0.16800
H1664       H  0.81565370  0.01655119  0.49670907     0.21200
H1665       H  0.68822198  0.98934420  0.52812730     0.19600
H1666       H  0.66448459  0.40982301  0.51684092     0.19500
H1667       H  0.84308561  0.09332913  0.51380762     0.15400
C1668       C  0.53868295  0.28584855  0.51051015     0.30800
C1669       C  0.51138196  0.28980342  0.52197899    -0.35500
C1670       C  0.97337558  0.25300317  0.52615547     0.16800
C1671       C  0.96026027  0.22027881  0.51489598     0.22600
C1672       C  0.98622942  0.21680130  0.50215809    -0.33700
C1673       C  0.52804298  0.25126310  0.50114788     0.16700
O1674       O  0.57549159  0.31343151  0.50677850    -0.25700
C1675       C  0.58864649  0.29627823  0.49487251     0.06500
C1676       C  0.56046803  0.25753374  0.49097340    -0.30600
O1677       O  0.92265658  0.19386353  0.51820940    -0.22400
C1678       C  0.91164955  0.20993525  0.53183244    -0.02400
C1679       C  0.94189669  0.24701917  0.53700272    -0.16800
H1680       H  0.51929187  0.31667077  0.52942651     0.21200
H1681       H  0.97647648  0.19149855  0.49313516     0.19600
H1682       H  0.56296825  0.23765585  0.48125277     0.19500
H1683       H  0.94130853  0.26596064  0.54792793     0.15400
C1684       C  0.83154520  0.66774807  0.56848072     0.46500
H1685       H  0.83035486  0.66668156  0.58421373    -0.02500
C1686       C  0.83378363  0.66946948  0.53158676     0.46500
H1687       H  0.83450927  0.67014665  0.51583011    -0.02500
C1688       C  0.87359667  0.69009459  0.56050714    -0.16200
C1689       C  0.81217557  0.62724779  0.55966884    -0.16000
C1690       C  0.81020684  0.68740781  0.55987141    -0.16400
C1691       C  0.87526024  0.69095152  0.54100800    -0.16300
C1692       C  0.81297887  0.62748515  0.54017910    -0.15900
C1693       C  0.81105649  0.68883641  0.54040906    -0.16200
C1694       C  0.66944013  0.83683126  0.49233009     0.46500
H1695       H  0.66882282  0.83450918  0.50805030    -0.05500
C1696       C  0.67144809  0.84259282  0.45564747     0.46500
H1697       H  0.67159071  0.84614871  0.44016620    -0.02500
C1698       C  0.69013914  0.81644466  0.48227211    -0.16200
C1699       C  0.62775918  0.81827680  0.48306193    -0.16000
C1700       C  0.69227913  0.87963492  0.48481274    -0.16400
C1701       C  0.69025775  0.81914178  0.46274447    -0.16300
C1702       C  0.62956220  0.82165771  0.46365611    -0.15900
C1703       C  0.69358542  0.88197598  0.46547598    -0.16200
Zn1704     Zn  0.61052023  0.80256019  0.68615978     1.49700
Zn1705     Zn  0.68940543  0.88663242  0.68613895     1.49400
Zn1706     Zn  0.69532139  0.80777528  0.68893560     1.49100
Zn1707     Zn  0.67006477  0.83069843  0.65104430     1.49500
O1708       O  0.66622247  0.83190229  0.67831434    -1.83100
O1709       O  0.59693877  0.83528769  0.70350489    -0.73700
O1710       O  0.73680927  0.90205981  0.70297633    -0.73500
O1711       O  0.65991281  0.76222103  0.70560113    -0.73100
O1712       O  0.65106605  0.89408013  0.70194927    -0.73700
O1713       O  0.59976290  0.75457675  0.70134301    -0.73300
O1714       O  0.73963966  0.84696885  0.70483232    -0.73900
O1715       O  0.70403202  0.80980027  0.64275484    -0.73300
O1716       O  0.70542550  0.92358053  0.66363444    -0.74100
O1717       O  0.71912584  0.78857844  0.66893046    -0.73500
O1718       O  0.69379184  0.88335642  0.63942685    -0.73900
O1719       O  0.61720557  0.79899895  0.63933393    -0.73800
O1720       O  0.57467945  0.78570015  0.66314079    -0.73600
C1721       C  0.61638026  0.87124956  0.70823287     0.78200
C1722       C  0.75252060  0.88258123  0.70926132     0.78700
C1723       C  0.62275068  0.74384989  0.70870699     0.77600
C1724       C  0.72077029  0.79334804  0.65102591     0.78000
C1725       C  0.70588356  0.91738716  0.64594193     0.79100
C1726       C  0.58210934  0.78501453  0.64557621     0.78200
C1727       C  0.49582908  0.49782068  0.78833901     0.46500
H1728       H  0.49454984  0.49682868  0.77255968    -0.02500
C1729       C  0.49887134  0.49986822  0.82532065     0.46500
H1730       H  0.50001808  0.50058802  0.84106064    -0.02500
C1731       C  0.95644755  0.97698993  0.79730074    -0.16200
C1732       C  0.52306650  0.98171548  0.79661502    -0.16000
C1733       C  0.51454249  0.53898520  0.79625961    -0.16400
C1734       C  0.95680267  0.97658615  0.81674036    -0.16300
C1735       C  0.52349838  0.98049480  0.81606187    -0.15900
C1736       C  0.51689668  0.54104213  0.81569631    -0.16200
C1737       C  0.66439676  0.83030530  0.86522728     0.46500
H1738       H  0.66492921  0.83114575  0.84947944    -0.02500
C1739       C  0.66324575  0.82833436  0.90203722     0.46500
H1740       H  0.66259290  0.82709754  0.91770434    -0.02500
C1741       C  0.64026612  0.84800087  0.87432965    -0.16200
C1742       C  0.64580052  0.78816072  0.87372314    -0.16000
C1743       C  0.70626096  0.85350422  0.87450658    -0.16400
C1744       C  0.64001083  0.84649759  0.89382920    -0.16300
C1745       C  0.64587292  0.78805449  0.89319262    -0.15900
C1746       C  0.70482423  0.85223070  0.89399904    -0.16200
C1747       C  0.83482420  0.66937004  0.12196043     0.46500
H1748       H  0.83587485  0.67108545  0.10618396    -0.02500
C1749       C  0.83281332  0.66567805  0.15894967     0.46500
H1750       H  0.83200078  0.66425091  0.17467613    -0.02500
C1751       C  0.79304735  0.64902402  0.12993212    -0.16200
C1752       C  0.85421384  0.64728271  0.13009417    -0.16000
C1753       C  0.85558286  0.70904990  0.13144647    -0.16400
C1754       C  0.79095379  0.64638156  0.14940837    -0.16300
C1755       C  0.85374709  0.64475697  0.14954795    -0.15900
C1756       C  0.85520194  0.70839133  0.15087532    -0.16200
C1757       C  0.49996268  0.00151959  0.20076924     0.46500
H1758       H  0.49906287  0.00128298  0.18504876    -0.02500
C1759       C  0.50260951  0.00212037  0.23773819     0.46500
H1760       H  0.50370286  0.00232947  0.25352459    -0.02500
C1761       C  0.98133852  0.52129122  0.20832282    -0.16200
C1762       C  0.97407118  0.95600126  0.20947421    -0.16000
C1763       C  0.54023653  0.51765841  0.20824753    -0.16400
C1764       C  0.98223554  0.52078992  0.22782369    -0.16300
C1765       C  0.97449889  0.95606355  0.22892190    -0.15900
C1766       C  0.53965629  0.51721446  0.22772608    -0.16200
Zn1767     Zn  0.80381587  0.69114913  0.33709519     1.49700
Zn1768     Zn  0.82947898  0.66498209  0.37338362     1.49400
Zn1769     Zn  0.80520207  0.60984863  0.33772029     1.49100
Zn1770     Zn  0.88720069  0.69084482  0.33797686     1.49500
O1771       O  0.83160455  0.66426343  0.34618388    -1.83100
O1772       O  0.77985837  0.70814025  0.35812583    -0.73700
O1773       O  0.80326410  0.61241073  0.38407493    -0.73500
O1774       O  0.75793587  0.59855164  0.32193344    -0.73100
O1775       O  0.79794905  0.68696675  0.38323762    -0.73700
O1776       O  0.75944434  0.65577049  0.31987339    -0.73300
O1777       O  0.78698233  0.57159290  0.35973959    -0.73900
O1778       O  0.89921473  0.65514203  0.32210148    -0.73300
O1779       O  0.88234023  0.69439845  0.38482426    -0.74100
O1780       O  0.84105220  0.60004043  0.32094004    -0.73500
O1781       O  0.92441001  0.70997451  0.36068041    -0.73900
O1782       O  0.89775273  0.73692659  0.32122205    -0.73800
O1783       O  0.84102679  0.73808443  0.32193430    -0.73600
C1784       C  0.77991507  0.70303791  0.37595461     0.78200
C1785       C  0.78772196  0.57814588  0.37743515     0.78700
C1786       C  0.74431255  0.61979149  0.31556129     0.77600
C1787       C  0.87729871  0.62035572  0.31611560     0.78000
C1788       C  0.91732923  0.70975821  0.37835801     0.79100
C1789       C  0.87664639  0.75196220  0.31634741     0.78200
Zn1790     Zn  0.52594223  0.55270432  0.01985878     1.49700
Zn1791     Zn  0.99729827  0.49917341  0.98491502     1.49400
Zn1792     Zn  0.52895059  0.97418960  0.02023109     1.49100
Zn1793     Zn  0.94382793  0.97064990  0.02114547     1.49500
O1794       O  0.99997635  0.49995566  0.01219399    -1.83100
O1795       O  0.54378940  0.58853036  0.99691935    -0.73700
O1796       O  0.53571523  0.98203387  0.97386713    -0.73500
O1797       O  0.57035087  0.50588199  0.03767667    -0.73100
O1798       O  0.51183792  0.54745132  0.97334554    -0.73700
O1799       O  0.57367891  0.56390094  0.03567122    -0.73300
O1800       O  0.54770783  0.95400062  0.99839883    -0.73900
O1801       O  0.93380058  0.92581601  0.03836950    -0.73300
O1802       O  0.94513546  0.96254016  0.97481553    -0.74100
O1803       O  0.99025882  0.92442045  0.03722264    -0.73500
O1804       O  0.90446687  0.94999394  0.99927766    -0.73900
O1805       O  0.93543729  0.51065239  0.03676905    -0.73800
O1806       O  0.99336363  0.56622617  0.03707936    -0.73600
C1807       C  0.53378094  0.58183385  0.97954052     0.78200
C1808       C  0.54990903  0.96186567  0.98075575     0.78700
C1809       C  0.58637104  0.54194187  0.04213721     0.77600
C1810       C  0.95522509  0.91136701  0.04346029     0.78000
C1811       C  0.91051805  0.94776774  0.98166695     0.79100
C1812       C  0.95717784  0.54597002  0.04204884     0.78200
C1813       C  0.61432077  0.53806097  0.26064349     0.30800
C1814       C  0.63591720  0.52951965  0.27381913    -0.35500
C1815       C  0.66413691  0.56134688  0.28428994     0.16800
C1816       C  0.67047586  0.59892899  0.28206665     0.22600
C1817       C  0.64892364  0.60749343  0.26885724    -0.33700
C1818       C  0.62097921  0.57573488  0.25823874     0.16700
O1819       O  0.58566755  0.51259012  0.24975917    -0.25700
C1820       C  0.57444123  0.53441692  0.24008743     0.06500
C1821       C  0.59514190  0.57383189  0.24474667    -0.30600
O1822       O  0.69883400  0.62430916  0.29312566    -0.22400
C1823       C  0.71085317  0.60268517  0.30245524    -0.02400
C1824       C  0.69030171  0.56329497  0.29758813    -0.16800
H1825       H  0.63105784  0.50015419  0.27576367     0.21200
H1826       H  0.65372156  0.63684457  0.26694292     0.19600
H1827       H  0.59066737  0.59720131  0.23946808     0.19500
H1828       H  0.69462870  0.53978061  0.30279396     0.15400
C1829       C  0.92331117  0.88292262  0.26252542     0.30800
C1830       C  0.89556389  0.86336258  0.27692561    -0.35500
C1831       C  0.89855269  0.83347621  0.28620146     0.16800
C1832       C  0.92712743  0.82369846  0.28177746     0.22600
C1833       C  0.95470364  0.84306342  0.26722510    -0.33700
C1834       C  0.95141464  0.87268258  0.25776996     0.16700
O1835       O  0.92689421  0.91280934  0.25255460    -0.25700
C1836       C  0.95709134  0.92120479  0.24104363     0.06500
C1837       C  0.97363509  0.89738619  0.24359149    -0.30600
O1838       O  0.92416144  0.79454067  0.29224480    -0.22400
C1839       C  0.89313888  0.78547781  0.30336673    -0.02400
C1840       C  0.87603334  0.80868626  0.30022685    -0.16800
H1841       H  0.87325050  0.87103239  0.28068967     0.21200
H1842       H  0.97715193  0.83554735  0.26352663     0.19600
H1843       H  0.52169485  0.93210761  0.25329362     0.19500
H1844       H  0.85025068  0.80697412  0.30705166     0.15400
C1845       C  0.93419707  0.59678474  0.28610485     0.30800
C1846       C  0.96875806  0.60090861  0.27769099    -0.35500
C1847       C  0.96309331  0.57443343  0.26313047     0.16800
C1848       C  0.92599220  0.54604618  0.25713562     0.22600
C1849       C  0.89149990  0.54161206  0.26570459    -0.33700
C1850       C  0.89717094  0.56781078  0.28038000     0.16700
O1851       O  0.93239754  0.61893368  0.29964113    -0.25700
C1852       C  0.89372140  0.60354152  0.30276686     0.06500
C1853       C  0.87045351  0.57157851  0.29126377    -0.30600
O1854       O  0.92760850  0.52422665  0.24341384    -0.22400
C1855       C  0.96622027  0.53891441  0.24062164    -0.02400
C1856       C  0.98973554  0.56986529  0.25255792    -0.16800
H1857       H  0.99801301  0.62321155  0.28216711     0.21200
H1858       H  0.86224582  0.51920723  0.26126833     0.19600
H1859       H  0.83842693  0.55441737  0.29061622     0.19500
H1860       H  0.02175478  0.58602088  0.25350998     0.15400
C1861       C  0.90482967  0.84178759  0.07889139     0.30800
C1862       C  0.87498755  0.82069990  0.09229541    -0.35500
C1863       C  0.87901838  0.79250574  0.10270945     0.16800
C1864       C  0.91019736  0.78556217  0.10005980     0.22600
C1865       C  0.94028285  0.80705070  0.08692998    -0.33700
C1866       C  0.93622940  0.83512757  0.07653610     0.16700
O1867       O  0.90674063  0.86896849  0.06727014    -0.25700
C1868       C  0.93980023  0.87971009  0.05744993     0.06500
C1869       C  0.95940044  0.85975392  0.06264319    -0.30600
O1870       O  0.90667117  0.75601833  0.11027282    -0.22400
C1871       C  0.87319241  0.74437658  0.11973736    -0.02400
C1872       C  0.85458132  0.76581581  0.11571020    -0.16800
H1873       H  0.85004670  0.82536711  0.09418800     0.21200
H1874       H  0.96461724  0.80159205  0.08465146     0.19600
H1875       H  0.98681811  0.86307754  0.05703759     0.19500
H1876       H  0.82635148  0.76107831  0.12091483     0.15400
C1877       C  0.66740370  0.59920701  0.07162326     0.30800
C1878       C  0.69936355  0.63371538  0.07881362    -0.35500
C1879       C  0.71986143  0.62893088  0.09403431     0.16800
C1880       C  0.70920400  0.59277222  0.10186560     0.22600
C1881       C  0.67735952  0.55831660  0.09464668    -0.33700
C1882       C  0.65739142  0.56302167  0.07919422     0.16700
O1883       O  0.64414730  0.59672610  0.05742564    -0.25700
C1884       C  0.61940675  0.55840030  0.05568834     0.06500
C1885       C  0.62632149  0.53603059  0.06882875    -0.30600
O1886       O  0.73281450  0.59498676  0.11580746    -0.22400
C1887       C  0.75895582  0.63303608  0.11687855    -0.02400
C1888       C  0.75262490  0.65556210  0.10361172    -0.16800
H1889       H  0.70792947  0.66220486  0.07282313     0.21200
H1890       H  0.66911075  0.52978783  0.10048732     0.19600
H1891       H  0.61012354  0.50455131  0.07075587     0.19500
H1892       H  0.76998549  0.68688198  0.10127246     0.15400
C1893       C  0.87537649  0.59539987  0.09650745     0.30800
C1894       C  0.86674751  0.56509662  0.08371466    -0.35500
C1895       C  0.89867277  0.56896346  0.07291468     0.16800
C1896       C  0.93651992  0.60061805  0.07444288     0.22600
C1897       C  0.94514923  0.63109302  0.08721362    -0.33700
C1898       C  0.91323450  0.62703281  0.09818178     0.16700
O1899       O  0.84987017  0.59779423  0.10788347    -0.25700
C1900       C  0.87178439  0.63104621  0.11713918     0.06500
C1901       C  0.91133230  0.65070542  0.11167223    -0.30600
O1902       O  0.96207194  0.59742544  0.06336471    -0.22400
C1903       C  0.94021599  0.56326211  0.05471228    -0.02400
C1904       C  0.90057518  0.54435803  0.06006871    -0.16800
H1905       H  0.83721845  0.54002438  0.08240128     0.21200
H1906       H  0.97475994  0.65596422  0.08866925     0.19600
H1907       H  0.93484126  0.67874171  0.11659618     0.19500
H1908       H  0.87686843  0.51603598  0.05555959     0.15400
C1909       C  0.89788979  0.58861198  0.16373471     0.30800
C1910       C  0.91322008  0.56314984  0.16099775    -0.35500
C1911       C  0.93252386  0.55771008  0.17663553     0.16800
C1912       C  0.93623528  0.57613024  0.19370620     0.22600
C1913       C  0.92082335  0.60143697  0.19645335    -0.33700
C1914       C  0.90153400  0.60685103  0.18085444     0.16700
O1915       O  0.87989024  0.59870048  0.15089631    -0.25700
C1916       C  0.87169573  0.62381420  0.15975918     0.06500
C1917       C  0.88430323  0.62972713  0.17857868    -0.30600
O1918       O  0.95457881  0.56656693  0.20654224    -0.22400
C1919       C  0.96291870  0.54146870  0.19783372    -0.02400
C1920       C  0.95003274  0.53503165  0.17902464    -0.16800
H1921       H  0.91042511  0.54874913  0.14756809     0.21200
H1922       H  0.92370814  0.61590797  0.20987238     0.19600
H1923       H  0.88242733  0.64909616  0.18885598     0.19500
H1924       H  0.47492073  0.53919300  0.16830837     0.15400
C1925       C  0.69031740  0.59973001  0.16341086     0.30800
C1926       C  0.64930810  0.58405768  0.16060059    -0.35500
C1927       C  0.62472402  0.56418234  0.17614260     0.16800
C1928       C  0.63981013  0.56014064  0.19314789     0.22600
C1929       C  0.68074171  0.57557106  0.19590372    -0.33700
C1930       C  0.70528994  0.59553741  0.18041197     0.16700
O1931       O  0.71837608  0.61897791  0.15076992    -0.25700
C1932       C  0.75200190  0.62716331  0.15957019     0.06500
C1933       C  0.74562259  0.61352232  0.17822433    -0.30600
O1934       O  0.61208347  0.54225611  0.20606583    -0.22400
C1935       C  0.57845523  0.53469070  0.19749046    -0.02400
C1936       C  0.58447500  0.54729889  0.17864286    -0.16800
H1937       H  0.63749679  0.58743150  0.14727121     0.21200
H1938       H  0.69260393  0.57260155  0.20930166     0.19600
H1939       H  0.76722447  0.61540080  0.18845503     0.19500
H1940       H  0.56282783  0.54596225  0.16858744     0.15400
C1941       C  0.91546507  0.85815421  0.19389803     0.30800
C1942       C  0.88740280  0.81801508  0.19611983    -0.35500
C1943       C  0.88650352  0.79281565  0.18176478     0.16800
C1944       C  0.91147304  0.80654872  0.16630155     0.22600
C1945       C  0.93927227  0.84667919  0.16399491    -0.33700
C1946       C  0.94023497  0.87182928  0.17835478     0.16700
O1947       O  0.92290746  0.88618269  0.20618129    -0.25700
C1948       C  0.95291247  0.91850395  0.19856444     0.06500
C1949       C  0.96457244  0.91136465  0.18102548    -0.30600
O1950       O  0.90499564  0.77844731  0.15428048    -0.22400
C1951       C  0.87529697  0.74590206  0.16188829    -0.02400
C1952       C  0.86281961  0.75305974  0.17921933    -0.16800
H1953       H  0.86795323  0.80716615  0.20833437     0.21200
H1954       H  0.95891961  0.85748144  0.15184758     0.19600
H1955       H  0.48038102  0.93808427  0.16977716     0.19500
H1956       H  0.83850987  0.73252660  0.18805977     0.15400
C1957       C  0.79327878  0.88678184  0.91981728     0.30800
C1958       C  0.83211698  0.89530276  0.92352156    -0.35500
C1959       C  0.84567199  0.90760812  0.94203068     0.16800
C1960       C  0.82263040  0.91100405  0.95598782     0.22600
C1961       C  0.78404092  0.90295710  0.95219648    -0.33700
C1962       C  0.77071586  0.89114959  0.93365703     0.16700
O1963       O  0.77391920  0.87361832  0.90372059    -0.25700
C1964       C  0.73876688  0.87025758  0.90724124     0.06500
C1965       C  0.73541501  0.88110611  0.92562387    -0.30600
O1966       O  0.84165575  0.92393055  0.97216639    -0.22400
C1967       C  0.87738866  0.92908628  0.96844108    -0.02400
C1968       C  0.88157430  0.91939255  0.94994897    -0.16800
H1969       H  0.85045690  0.89263867  0.91276106     0.21200
H1970       H  0.76579156  0.90595721  0.96289295     0.19600
H1971       H  0.71032447  0.88095138  0.93233428     0.19500
H1972       H  0.90773502  0.92195775  0.94317343     0.15400
C1973       C  0.58811141  0.66721559  0.95319920     0.30800
C1974       C  0.62035874  0.70410035  0.94913623    -0.35500
C1975       C  0.62032325  0.71918507  0.93118574     0.16800
C1976       C  0.59041427  0.69975254  0.91812979     0.22600
C1977       C  0.55834988  0.66242586  0.92206234    -0.33700
C1978       C  0.55860627  0.64705900  0.94001070     0.16700
O1979       O  0.58249458  0.64754506  0.96909590    -0.25700
C1980       C  0.54916979  0.61422338  0.96601443     0.06500
C1981       C  0.53298884  0.61210864  0.94815382    -0.30600
O1982       O  0.59564100  0.72063298  0.90262953    -0.22400
C1983       C  0.62972368  0.75341173  0.90575054    -0.02400
C1984       C  0.64633550  0.75393942  0.92325842    -0.16800
H1985       H  0.64385517  0.72003834  0.95931780     0.21200
H1986       H  0.53478656  0.64660347  0.91190799     0.19600
H1987       H  0.50658129  0.58807379  0.94200970     0.19500
H1988       H  0.67322436  0.77714820  0.92950880     0.15400
C1989       C  0.60985892  0.90333932  0.91960303     0.30800
C1990       C  0.60400591  0.93501939  0.92333087    -0.35500
C1991       C  0.59056376  0.93616087  0.94163665     0.16800
C1992       C  0.58392620  0.90847275  0.95542364     0.22600
C1993       C  0.58955873  0.87672448  0.95164498    -0.33700
C1994       C  0.60229436  0.87523763  0.93326207     0.16700
O1995       O  0.62284172  0.89658674  0.90357851    -0.25700
C1996       C  0.62278638  0.86328049  0.90693814     0.06500
C1997       C  0.61010633  0.84871244  0.92517548    -0.30600
O1998       O  0.57032955  0.91467512  0.97138196    -0.22400
C1999       C  0.56796142  0.94655336  0.96767598    -0.02400
C2000       C  0.58012561  0.96118675  0.94941701    -0.16800
H2001       H  0.60914628  0.95693958  0.91268300     0.21200
H2002       H  0.58387570  0.85447162  0.96218920     0.19600
H2003       H  0.60771048  0.82271106  0.93173718     0.19500
H2004       H  0.58004741  0.98593035  0.94269753     0.15400
C2005       C  0.57851990  0.93606161  0.83077647     0.30800
C2006       C  0.60713489  0.92435773  0.82889801    -0.35500
C2007       C  0.60753186  0.89965309  0.84322369     0.16800
C2008       C  0.58134523  0.88723207  0.85825980     0.22600
C2009       C  0.55264459  0.89884604  0.86010500    -0.33700
C2010       C  0.55249644  0.92386517  0.84587530     0.16700
O2011       O  0.57263364  0.95852983  0.81886611    -0.25700
C2012       C  0.54254886  0.96110763  0.82637186     0.06500
C2013       C  0.52896190  0.94029659  0.84332008    -0.30600
O2014       O  0.58821770  0.86599427  0.87053974    -0.22400
C2015       C  0.61947537  0.86496113  0.86348406    -0.02400
C2016       C  0.63242120  0.88496538  0.84629669    -0.16800
H2017       H  0.62787582  0.93416390  0.81717379     0.21200
H2018       H  0.53230937  0.88953611  0.87198639     0.19600
H2019       H  0.50429702  0.93640494  0.85198844     0.19500
H2020       H  0.65784042  0.88996037  0.83792452     0.15400
C2021       C  0.60675110  0.69115448  0.85772684     0.30800
C2022       C  0.59474957  0.65123675  0.85993051    -0.35500
C2023       C  0.57040079  0.62614949  0.84560975     0.16800
C2024       C  0.55900171  0.63961508  0.83011372     0.22600
C2025       C  0.57072489  0.67957595  0.82799191    -0.33700
C2026       C  0.59494283  0.70469131  0.84241063     0.16700
O2027       O  0.62799603  0.71909428  0.86989450    -0.25700
C2028       C  0.62958688  0.75115340  0.86261287     0.06500
C2029       C  0.60996362  0.74407105  0.84528053    -0.30600
O2030       O  0.53769234  0.61138129  0.81802627    -0.22400
C2031       C  0.53517305  0.57924895  0.82583967    -0.02400
C2032       C  0.55465285  0.58666289  0.84317902    -0.16800
H2033       H  0.60360270  0.64048891  0.87206016     0.21200
H2034       H  0.56159189  0.69027751  0.81594774     0.19600
H2035       H  0.60535178  0.76431071  0.83669962     0.19500
H2036       H  0.55837340  0.56638282  0.85217459     0.15400
C2037       C  0.85868937  0.91733159  0.83261357     0.30800
C2038       C  0.81879936  0.88803080  0.83066193    -0.35500
C2039       C  0.79246240  0.88752037  0.84440297     0.16800
C2040       C  0.80469275  0.91406991  0.85906653     0.22600
C2041       C  0.84468964  0.94335979  0.86106107    -0.33700
C2042       C  0.87111556  0.94380268  0.84732058     0.16700
O2043       O  0.88758601  0.92424258  0.82074807    -0.25700
C2044       C  0.91925361  0.95554801  0.82781033     0.06500
C2045       C  0.91090123  0.96874673  0.84455439    -0.30600
O2046       O  0.77553932  0.90701562  0.87084791    -0.22400
C2047       C  0.74419678  0.87529986  0.86382041    -0.02400
C2048       C  0.75286269  0.86228503  0.84713934    -0.16800
H2049       H  0.80898065  0.86713967  0.81915307     0.21200
H2050       H  0.85451444  0.96419726  0.87259266     0.19600
H2051       H  0.93052802  0.99443737  0.85271002     0.19500
H2052       H  0.73351909  0.83647934  0.83898374     0.15400
C2053       C  0.83183637  0.90580505  0.73942305     0.30800
C2054       C  0.86053085  0.89968832  0.74817356    -0.35500
C2055       C  0.88132514  0.92510169  0.76298387     0.16800
C2056       C  0.87436000  0.95455427  0.76891421     0.22600
C2057       C  0.84573888  0.96093444  0.76000866    -0.33700
C2058       C  0.82503803  0.93555944  0.74500968     0.16700
O2059       O  0.80807286  0.88433241  0.72578278    -0.25700
C2060       C  0.78594055  0.90063482  0.72235466     0.06500
C2061       C  0.79526442  0.93288682  0.73375844    -0.30600
O2062       O  0.89853449  0.97571083  0.78262675    -0.22400
C2063       C  0.92092261  0.95933016  0.78538342    -0.02400
C2064       C  0.91173400  0.92795795  0.77355630    -0.16800
H2065       H  0.86625781  0.87665405  0.74371740     0.21200
H2066       H  0.84020491  0.98413968  0.76437409     0.19600
H2067       H  0.78094499  0.95044643  0.73429306     0.19500
H2068       H  0.92654608  0.91091908  0.77240177     0.15400
C2069       C  0.57163899  0.62009714  0.76724797     0.30800
C2070       C  0.60653370  0.65095555  0.75963243    -0.35500
C2071       C  0.60171704  0.67085270  0.74426763     0.16800
C2072       C  0.56507130  0.66135552  0.73698045     0.22600
C2073       C  0.53017017  0.62996151  0.74436400    -0.33700
C2074       C  0.53501571  0.60985616  0.75965733     0.16700
O2075       O  0.56927546  0.59753229  0.78161459    -0.25700
C2076       C  0.53068384  0.57255674  0.78318593     0.06500
C2077       C  0.50792608  0.57844268  0.76981774    -0.30600
O2078       O  0.56747321  0.68529428  0.72324479    -0.22400
C2079       C  0.60618236  0.71005836  0.72159958    -0.02400
C2080       C  0.62891167  0.70230915  0.73421449    -0.16800
H2081       H  0.63543395  0.65907462  0.76538061     0.21200
H2082       H  0.50124519  0.62201948  0.73871046     0.19600
H2083       H  0.47614932  0.56161795  0.76778384     0.19500
H2084       H  0.66073317  0.71849166  0.73617649     0.15400
C2085       C  0.54546596  0.92264304  0.76805531     0.30800
C2086       C  0.53930292  0.88777766  0.75961641    -0.35500
C2087       C  0.56523914  0.89209088  0.74477044     0.16800
C2088       C  0.59555817  0.92818381  0.73892612     0.22600
C2089       C  0.60170275  0.96295879  0.74733435    -0.33700
C2090       C  0.57541001  0.95870011  0.76191134     0.16700
O2091       O  0.52371752  0.92571583  0.78156240    -0.25700
C2092       C  0.53997689  0.96418990  0.78394920     0.06500
C2093       C  0.57202770  0.98615253  0.77209246    -0.30600
O2094       O  0.61676177  0.92550397  0.72508520    -0.22400
C2095       C  0.59961697  0.88725132  0.72181005    -0.02400
C2096       C  0.56729123  0.86493770  0.73359053    -0.16800
H2097       H  0.51559098  0.85936064  0.76410815     0.21200
H2098       H  0.62506722  0.99140890  0.74265910     0.19600
H2099       H  0.59481104  0.51593475  0.77719290     0.19500
H2100       H  0.54883728  0.83337198  0.73419042     0.15400
C2101       C  0.73651988  0.74916640  0.40025095     0.30800
C2102       C  0.72532339  0.77739009  0.40317620    -0.35500
C2103       C  0.71696986  0.78209182  0.42197006     0.16800
C2104       C  0.71853841  0.76020457  0.43689366     0.22600
C2105       C  0.72940506  0.73163134  0.43397959    -0.33700
C2106       C  0.73849199  0.72734548  0.41519501     0.16700
O2107       O  0.74912031  0.74239642  0.38411594    -0.25700
C2108       C  0.75951216  0.71609685  0.38886308     0.06500
C2109       C  0.75325324  0.70542572  0.40793953    -0.30600
O2110       O  0.70995035  0.77025280  0.45330683    -0.22400
C2111       C  0.70347165  0.79950456  0.44887065    -0.02400
C2112       C  0.70739533  0.80775079  0.42945258    -0.16800
H2113       H  0.72457104  0.79542286  0.39172407     0.21200
H2114       H  0.73183986  0.71484485  0.44558817     0.19600
H2115       H  0.76051122  0.68585201  0.41553353     0.19500
H2116       H  0.70380727  0.82921184  0.42150181     0.15400
C2117       C  0.53985426  0.78578064  0.43881563     0.30800
C2118       C  0.49995571  0.77428020  0.43582469    -0.35500
C2119       C  0.98183292  0.75039349  0.41816088     0.16800
C2120       C  0.50900992  0.75952353  0.40311183     0.22600
C2121       C  0.54860205  0.77058818  0.40617762    -0.33700
C2122       C  0.56265630  0.78334466  0.42447523     0.16700
O2123       O  0.55982411  0.79933349  0.45473225    -0.25700
C2124       C  0.59563968  0.80509144  0.45046051     0.06500
C2125       C  0.59873920  0.79520546  0.43186810    -0.30600
O2126       O  0.98604295  0.73367297  0.38812273    -0.22400
C2127       C  0.94985642  0.72714375  0.39195749    -0.02400
C2128       C  0.94544226  0.73680920  0.41041907    -0.16800
H2129       H  0.97755162  0.76777344  0.44703214     0.21200
H2130       H  0.56705115  0.76893754  0.39513324     0.19600
H2131       H  0.62374527  0.79611334  0.42467683     0.19500
H2132       H  0.91920540  0.73424755  0.41710625     0.15400
C2133       C  0.76220763  0.49822232  0.40680225     0.30800
C2134       C  0.75777350  0.96781471  0.41106535    -0.35500
C2135       C  0.74299323  0.95309957  0.42909296     0.16800
C2136       C  0.73456324  0.97331399  0.44253993     0.22600
C2137       C  0.74223481  0.01154798  0.43892828    -0.33700
C2138       C  0.74502616  0.51558310  0.41722512     0.16700
O2139       O  0.77762546  0.51655689  0.39070556    -0.25700
C2140       C  0.77045516  0.54612681  0.39098914     0.06500
C2141       C  0.75037518  0.54709850  0.40708554    -0.30600
O2142       O  0.71752264  0.95192060  0.45782330    -0.22400
C2143       C  0.71557884  0.91791305  0.45397056    -0.02400
C2144       C  0.73178152  0.91754914  0.43649456    -0.16800
H2145       H  0.76307748  0.95094069  0.40056599     0.21200
H2146       H  0.73597861  0.02801927  0.44926876     0.19600
H2147       H  0.74216183  0.56870489  0.41097449     0.19500
H2148       H  0.73371279  0.89400024  0.42977471     0.15400
C2149       C  0.76974160  0.71092750  0.59819762     0.30800
C2150       C  0.75439532  0.70613728  0.61661351    -0.35500
C2151       C  0.75314054  0.73838935  0.62406449     0.16800
C2152       C  0.76548799  0.77261501  0.61389573     0.22600
C2153       C  0.78118401  0.77753381  0.59555280    -0.33700
C2154       C  0.78272410  0.74539824  0.58817794     0.16700
O2155       O  0.77555132  0.68535275  0.58893793    -0.25700
C2156       C  0.79213067  0.70344818  0.57271837     0.06500
C2157       C  0.79751750  0.74104717  0.57145574    -0.30600
O2158       O  0.75807197  0.79748729  0.62280268    -0.22400
C2159       C  0.74143670  0.77931099  0.63899524    -0.02400
C2160       C  0.73798458  0.74259164  0.64073799    -0.16800
H2161       H  0.74416637  0.67920719  0.62453144     0.21200
H2162       H  0.79098934  0.80428641  0.58753634     0.19600
H2163       H  0.81242521  0.76276983  0.56044570     0.19500
H2164       H  0.72310451  0.72088431  0.65175428     0.15400
C2165       C  0.96421416  0.72815343  0.58490618     0.30800
C2166       C  0.00356447  0.73750022  0.58793612    -0.35500
C2167       C  0.51789373  0.74952544  0.60539328     0.16800
C2168       C  0.49533227  0.75311995  0.61953987     0.22600
C2169       C  0.95714920  0.74532803  0.61740168    -0.33700
C2170       C  0.94232885  0.73244957  0.59913104     0.16700
O2171       O  0.94354725  0.71350867  0.56925404    -0.25700
C2172       C  0.90804352  0.70866262  0.57347752     0.06500
C2173       C  0.90581723  0.72032313  0.59184705    -0.30600
O2174       O  0.51440128  0.76484006  0.63574757    -0.22400
C2175       C  0.54971529  0.76907924  0.63188545    -0.02400
C2176       C  0.55366690  0.76008733  0.61322970    -0.16800
H2177       H  0.02113237  0.73433452  0.57690469     0.21200
H2178       H  0.93936361  0.74797077  0.62849658     0.19600
H2179       H  0.88077714  0.71944257  0.59901248     0.19500
H2180       H  0.57933160  0.76156366  0.60642104     0.15400
C2181       C  0.76551229  0.56046000  0.59676751     0.30800
C2182       C  0.74897959  0.54887136  0.61493901    -0.35500
C2183       C  0.73680647  0.00540575  0.61927753     0.16800
C2184       C  0.74228591  0.98098825  0.60717654     0.22600
C2185       C  0.76154698  0.49771274  0.59063261    -0.33700
C2186       C  0.77184456  0.53584697  0.58524522     0.16700
O2187       O  0.77806335  0.59506626  0.58901925    -0.25700
C2188       C  0.79256192  0.59268992  0.57229442     0.06500
C2189       C  0.79006571  0.55661087  0.56930606    -0.30600
O2190       O  0.73218195  0.94689460  0.61501391    -0.22400
C2191       C  0.72063157  0.94980982  0.63240147    -0.02400
C2192       C  0.72298730  0.98557542  0.63591868    -0.16800
H2193       H  0.74466383  0.56828586  0.62419697     0.21200
H2194       H  0.76670441  0.47863202  0.58152673     0.19600
H2195       H  0.80126277  0.54740159  0.55753656     0.19500
H2196       H  0.71516130  0.99524012  0.64873001     0.15400
C2197       C  0.74948683  0.77773579  0.49790005     0.30800
C2198       C  0.78018695  0.76882187  0.49655798    -0.35500
C2199       C  0.77983850  0.74254637  0.51017626     0.16800
C2200       C  0.75134178  0.72652091  0.52419580     0.22600
C2201       C  0.72076779  0.73556408  0.52558812    -0.33700
C2202       C  0.72100220  0.76165782  0.51192342     0.16700
O2203       O  0.74316024  0.80012360  0.48615003    -0.25700
C2204       C  0.70998464  0.79810984  0.49255459     0.06500
C2205       C  0.69520718  0.77513893  0.50879120    -0.30600
O2206       O  0.75752801  0.70405683  0.53593534    -0.22400
C2207       C  0.79047292  0.70564820  0.52947533    -0.02400
C2208       C  0.80546211  0.72878975  0.51328737    -0.16800
H2209       H  0.80262599  0.78132964  0.48557145     0.21200
H2210       H  0.69835982  0.72309947  0.53658817     0.19600
H2211       H  0.66837681  0.76788983  0.51654159     0.19500
H2212       H  0.83250051  0.73626540  0.50567167     0.15400
C2213       C  0.75416434  0.97323632  0.50308841     0.30800
C2214       C  0.78601315  0.51218046  0.50171984    -0.35500
C2215       C  0.78340500  0.54077533  0.51246847     0.16800
C2216       C  0.75097092  0.53209696  0.52368151     0.22600
C2217       C  0.71852092  0.49380312  0.52493322    -0.33700
C2218       C  0.71947634  0.96603991  0.51186460     0.16700
O2219       O  0.75004787  0.94252153  0.49367681    -0.25700
C2220       C  0.71242892  0.91508822  0.49671187     0.06500
C2221       C  0.69209243  0.92800688  0.50806350    -0.30600
O2222       O  0.75595800  0.56243293  0.53368989    -0.22400
C2223       C  0.79206420  0.59102517  0.52891177    -0.02400
C2224       C  0.81033811  0.57942170  0.51549680    -0.16800
H2225       H  0.81156014  0.51919887  0.49289803     0.21200
H2226       H  0.69301763  0.48675667  0.53379640     0.19600
H2227       H  0.66075873  0.91279372  0.51145370     0.19500
H2228       H  0.84037509  0.59596827  0.51012996     0.15400
C2229       C  0.54020596  0.78596740  0.50985183     0.30800
C2230       C  0.51359718  0.78985578  0.52193136    -0.35500
C2231       C  0.97364107  0.75656620  0.52349832     0.16800
C2232       C  0.96225415  0.72185560  0.51411594     0.22600
C2233       C  0.98912198  0.71739981  0.50248838    -0.33700
C2234       C  0.52802387  0.75243741  0.49930659     0.16700
O2235       O  0.57761269  0.81280486  0.50650586    -0.25700
C2236       C  0.58962240  0.79626092  0.49361221     0.06500
C2237       C  0.56008155  0.75847682  0.48885371    -0.30600
O2238       O  0.92535158  0.69467112  0.51810489    -0.22400
C2239       C  0.91301482  0.71225130  0.53023549    -0.02400
C2240       C  0.94168636  0.75094754  0.53385222    -0.16800
H2241       H  0.52266688  0.81585338  0.53034772     0.21200
H2242       H  0.98068224  0.69046005  0.49499213     0.19600
H2243       H  0.56142691  0.73922842  0.47832796     0.19500
H2244       H  0.93989619  0.77120276  0.54358839     0.15400
loop_ 
_geom_bond_atom_site_label_1 
_geom_bond_atom_site_label_2 
_geom_bond_distance 
_geom_bond_site_symmetry_2 
_ccdc_geom_bond_type 
C1            H2   1.109       .  S
C1            C7   1.514       .  S
C1            C6   1.520       .  S
C1            C5   1.527       .  S
C3            H4   1.111       .  S
C3            C9   1.552       .  S
C3            C8   1.550       .  S
C3           C10   1.558       .  S
C5            C8   1.375       .  D
C5          C489   1.481       .  S
C6            C9   1.372       .  D
C6          C505   1.474       .  S
C7           C10   1.373       .  D
C7          C473   1.475       .  S
C8          C556   1.483       .  S
C9          C540   1.485       .  S
C10         C524   1.480       .  S
C11          H12   1.111       .  S
C11          C17   1.556       .  S
C11          C16   1.554       .  S
C11          C15   1.565       .  S
C13          H14   1.104       .  S
C13          C19   1.520       .  S
C13          C18   1.520       .  S
C13          C20   1.516       .  S
C15          C18   1.380       .  D
C15         C521   1.481       .  S
C16          C19   1.370       .  D
C16         C553   1.492       .  S
C17          C20   1.366       .  D
C17         C537   1.482       .  S
C18         C428   1.489       .  S
C19         C441   1.470       .  S
C20         C460   1.475       .  S
Zn21         O25   1.960       .  S
Zn21         O26   2.025       .  S
Zn21         O30   2.025       .  S
Zn21         O37   2.026       .  S
Zn22         O25   1.960       .  S
Zn22         O27   2.011       .  S
Zn22         O29   1.997       .  S
Zn22         O33   2.031       .  S
Zn23         O25   1.956       .  S
Zn23         O28   2.013       .  S
Zn23         O31   1.986       .  S
Zn23         O34   2.020       .  S
Zn24         O25   1.934       .  S
Zn24         O32   1.974       .  S
Zn24         O35   1.990       .  S
Zn24         O36   1.991       .  S
O26          C38   1.274       .  A
O27          C39   1.273       .  A
O28          C40   1.272       .  A
O29          C38   1.271       .  A
O30          C40   1.273       .  A
O31          C39   1.270       .  A
O32          C41   1.266       .  A
O33          C42   1.273       .  A
O34          C41   1.272       .  A
O35          C42   1.268       .  A
O36          C43   1.271       .  A
O37          C43   1.274       .  A
C38         C412   1.465       .  S
C39         C377   1.457       .  S
C40         C396   1.468       .  S
C41         C476   1.456       .  S
C42         C508   1.465       .  S
C43         C492   1.462       .  S
C44          H45   1.113       .  S
C44          C50   1.518   1_665  S
C44         C610   1.518   1_655  S
C44        C1731   1.517       .  S
C46          H47   1.110   1_655  S
C46          C53   1.562   1_665  S
C46         C613   1.561   1_655  S
C46        C1734   1.559       .  S
C48        C1727   1.515       .  S
C48          C51   1.369       .  D
C48         C380   1.462       .  S
C49         C605   1.519       .  S
C49          C52   1.370       .  D
C49         C409   1.468       .  S
C50          C53   1.372       .  D
C50         C393   1.468       .  S
C51        C1729   1.556       .  S
C51         C361   1.487       .  S
C52         C607   1.557       .  S
C52         C329   1.487       .  S
C53         C348   1.493       .  S
C54          H55   1.110       .  S
C54          C60   1.560       .  S
C54          C59   1.561       .  S
C54          C58   1.559       .  S
C56          H57   1.105       .  S
C56          C62   1.520       .  S
C56          C61   1.517       .  S
C56          C63   1.519       .  S
C58          C61   1.373       .  D
C58         C332   1.488       .  S
C59          C62   1.374       .  D
C59         C345   1.493       .  S
C60          C63   1.374       .  D
C60         C364   1.487       .  S
C61         C313   1.478       .  S
C62         C300   1.478       .  S
C63         C281   1.479       .  S
C64          H65   1.113       .  S
C64          C70   1.515       .  S
C64          C69   1.520       .  S
C64          C68   1.516       .  S
C66          H67   1.109       .  S
C66          C72   1.563       .  S
C66          C71   1.565       .  S
C66          C73   1.562       .  S
C68          C71   1.374       .  D
C68         C204   1.467       .  S
C69          C72   1.376       .  D
C69         C217   1.473       .  S
C70          C73   1.371       .  D
C70         C188   1.463       .  S
C71         C249   1.499       .  S
C72         C233   1.498       .  S
C73         C268   1.499       .  S
C74          H75   1.109       .  S
C74         C641   1.565       .  S
C74        C1201   1.559   1_455  S
C74        C1761   1.567   1_455  S
C76          H77   1.113       .  S
C76        C1204   1.516   1_455  S
C76        C1764   1.515   1_455  S
C76         C644   1.512       .  S
C78        C1757   1.563       .  S
C78          C81   1.376       .  D
C78         C236   1.498       .  S
C79        C1196   1.563       .  S
C79          C82   1.371       .  D
C79         C265   1.499       .  S
C80         C635   1.562   1_445  S
C80          C83   1.376       .  D
C80         C252   1.500       .  S
C81        C1759   1.518       .  S
C81         C172   1.470       .  S
C82        C1198   1.514       .  S
C82         C153   1.460       .  S
C83         C637   1.518   1_445  S
C83         C137   1.470       .  S
Zn84         O88   1.955       .  S
Zn84         O89   2.046       .  S
Zn84         O93   2.014       .  S
Zn84        O100   1.994       .  S
Zn85         O88   1.917       .  S
Zn85         O90   1.941       .  S
Zn85         O92   1.934       .  S
Zn85         O96   1.959       .  S
Zn86         O88   1.950       .  S
Zn86         O91   2.013       .  S
Zn86         O94   2.023       .  S
Zn86         O97   2.004       .  S
Zn87         O88   1.959       .  S
Zn87         O95   2.021       .  S
Zn87         O98   2.034       .  S
Zn87         O99   2.010       .  S
O89         C101   1.273       .  A
O90         C102   1.263       .  A
O91         C103   1.273       .  A
O92         C101   1.262       .  A
O93         C103   1.273       .  A
O94         C102   1.273       .  A
O95         C104   1.273       .  A
O96         C105   1.265       .  A
O97         C104   1.272       .  A
O98         C105   1.274       .  A
O99         C106   1.273       .  A
O100        C106   1.273       .  A
C101        C425   1.460       .  S
C102        C457   1.450       .  S
C103        C140   1.466       .  S
C104        C169   1.465       .  S
C105        C444   1.459       .  S
C106        C156   1.458       .  S
Zn107      O1233   1.954   1_445  S
Zn107       O112   2.033   1_554  S
Zn107       O116   2.012       .  S
Zn107      O1245   2.026   1_455  S
Zn108       O111   1.919   1_556  S
Zn108      O1796   1.970   1_545  S
Zn108      O1237   1.957       .  S
Zn108       O680   1.965   1_545  S
Zn109      O1794   1.954   1_455  S
Zn109       O117   2.028   1_554  S
Zn109       O675   2.023       .  S
Zn109      O1242   1.996   1_455  S
Zn110       O672   1.958       .  S
Zn110       O118   2.010       .  S
Zn110       O121   2.040       .  S
Zn110       O683   2.001       .  S
O111      Zn1229   1.958       .  S
O111      Zn1792   1.945   1_545  S
O111       Zn671   1.953   1_545  S
O112        C124   1.274       .  A
O113      Zn1791   1.980   1_455  S
O113        C125   1.268       .  A
O114       Zn670   2.004   1_545  S
O114        C126   1.272       .  A
O115      Zn1230   1.961   1_445  S
O115        C124   1.266       .  A
O116        C126   1.273       .  A
O117        C125   1.273       .  A
O118        C127   1.272       .  A
O119       Zn669   1.964       .  S
O119        C128   1.266       .  A
O120      Zn1231   2.001       .  S
O120        C127   1.273       .  A
O121        C128   1.274   1_554  A
O122       Zn671   2.008   1_545  S
O122        C129   1.274       .  A
O123      Zn1229   2.033       .  S
O123        C129   1.275       .  A
C124        C297   1.459       .  S
C125        C316   1.461       .  S
C126        C201   1.463       .  S
C127        C185   1.463       .  S
C128        C284   1.463       .  S
C129        C220   1.470       .  S
C130        C135   1.381       .  A
C130        C131   1.403       .  A
C130        O136   1.318       .  A
C131        C132   1.402       .  A
C131        H142   1.082   1_545  S
C132        C141   1.361       .  A
C132        C133   1.381       .  A
C133        C134   1.401       .  A
C133        O139   1.317       .  A
C134        C135   1.400       .  A
C134        H143   1.082       .  S
C135        C138   1.360       .  A
O136        C137   1.329       .  A
C137        C138   1.388       .  A
C138        H144   1.082       .  S
O139        C140   1.329       .  A
C140        C141   1.391       .  A
C141        H145   1.082       .  S
C146        C151   1.382       .  A
C146        C147   1.397       .  A
C146        O152   1.313       .  A
C147        C148   1.396       .  A
C147        H158   1.085       .  S
C148        C157   1.355       .  A
C148        C149   1.381       .  A
C149        C150   1.401       .  A
C149        O155   1.316       .  A
C150        C151   1.400       .  A
C150        H159   1.084       .  S
C151        C154   1.359       .  A
O152        C153   1.325       .  A
C153        C154   1.387       .  A
C154       H1282   1.084       .  S
O155        C156   1.329       .  A
C156        C157   1.388       .  A
C157        H161   1.084       .  S
H160       C1276   1.084       .  S
C162        C167   1.381       .  A
C162        C163   1.402       .  A
C162        O168   1.319       .  A
C163        C164   1.401       .  A
C163        H174   1.083       .  S
C164        C173   1.358       .  A
C164        C165   1.382       .  A
C165        C166   1.401       .  A
C165        O171   1.318       .  A
C166        C167   1.401       .  A
C166        H175   1.083       .  S
C167        C170   1.358       .  A
O168        C169   1.330       .  A
C169        C170   1.390       .  A
C170        H176   1.083       .  S
O171        C172   1.329       .  A
C172        C173   1.388       .  A
C173        H177   1.083       .  S
C178        C183   1.381       .  A
C178        C179   1.403       .  A
C178        O184   1.318       .  A
C179        C180   1.402       .  A
C179        H190   1.082       .  S
C180        C189   1.360       .  A
C180        C181   1.382       .  A
C181        C182   1.397       .  A
C181        O187   1.314       .  A
C182        C183   1.397       .  A
C182        H191   1.082       .  S
C183        C186   1.355       .  A
O184        C185   1.331       .  A
C185        C186   1.388       .  A
C186        H192   1.083       .  S
O187        C188   1.325       .  A
C188        C189   1.388       .  A
C189        H193   1.082       .  S
C194        C199   1.381       .  A
C194        C195   1.401       .  A
C194        O200   1.317       .  A
C195        C196   1.400       .  A
C195        H206   1.082       .  S
C196        C205   1.358       .  A
C196        C197   1.381       .  A
C197        C198   1.401       .  A
C197        O203   1.317       .  A
C198        C199   1.401       .  A
C198        H207   1.082       .  S
C199        C202   1.359       .  A
O200        C201   1.329       .  A
C201        C202   1.390       .  A
C202        H208   1.083       .  S
O203        C204   1.328       .  A
C204        C205   1.387       .  A
C205        H209   1.082       .  S
C210        C215   1.381       .  A
C210        C211   1.401       .  A
C210        O216   1.317       .  A
C211        C212   1.400       .  A
C211        H222   1.084       .  S
C212        C221   1.358       .  A
C212        C213   1.381       .  A
C213        C214   1.405       .  A
C213        O219   1.321       .  A
C214        C215   1.404       .  A
C214        H223   1.084       .  S
C215        C218   1.362       .  A
O216        C217   1.328       .  A
C217        C218   1.390       .  A
C218        H224   1.083       .  S
O219        C220   1.332       .  A
C220        C221   1.390       .  A
C221        H225   1.083       .  S
C226        C231   1.377       .  A
C226        C227   1.408       .  A
C226        O232   1.315       .  A
C227        C228   1.404       .  A
C227        H238   1.082       .  S
C228        C237   1.372       .  A
C228        C229   1.377       .  A
C229        C230   1.409       .  A
C229        O235   1.316       .  A
C230        C231   1.405       .  A
C230        H239   1.083       .  S
C231        C234   1.373       .  A
O232        C233   1.334       .  A
C233        C234   1.394       .  A
C234        H240   1.082       .  S
O235        C236   1.334       .  A
C236        C237   1.394       .  A
C237       H1363   1.082       .  S
H241       C1359   1.082       .  S
C242        C247   1.377       .  A
C242        C243   1.410       .  A
C242        O248   1.318       .  A
C243        C244   1.407       .  A
C243        H254   1.082       .  S
C244        C253   1.374       .  A
C244        C245   1.377       .  A
C245        C246   1.408       .  A
C245        O251   1.316       .  A
C246        C247   1.404       .  A
C246        H255   1.082       .  S
C247        C250   1.372       .  A
O248        C249   1.336       .  A
C249        C250   1.394       .  A
C250        H256   1.082       .  S
O251        C252   1.334       .  A
C252        C253   1.395       .  A
C253        H257   1.082       .  S
C258        C263   1.377       .  A
C258        C259   1.411       .  A
C258        O264   1.318       .  A
C259        C260   1.407       .  A
C259        H270   1.082       .  S
C260        C269   1.376       .  A
C260        C261   1.377       .  A
C261        C262   1.409       .  A
C261        O267   1.316       .  A
C262        C263   1.405       .  A
C262        H271   1.082       .  S
C263        C266   1.374       .  A
O264        C265   1.336       .  A
C265        C266   1.394       .  A
C266       H1394   1.082       .  S
O267        C268   1.335       .  A
C268        C269   1.395       .  A
C269        H273   1.082       .  S
H272       C1388   1.082       .  S
C274        C279   1.380       .  A
C274        C275   1.400       .  A
C274        O280   1.319       .  A
C275        C276   1.402       .  A
C275        H286   1.082       .  S
C276        C285   1.354       .  A
C276        C277   1.382       .  A
C277        C278   1.399       .  A
C277        O283   1.319       .  A
C278        C279   1.400       .  A
C278        H287   1.082       .  S
C279        C282   1.352       .  A
O280        C281   1.330       .  A
C281        C282   1.392       .  A
C282        H288   1.082       .  S
O283        C284   1.328       .  A
C284        C285   1.391       .  A
C285        H289   1.082       .  S
C290        C295   1.382       .  A
C290        C291   1.397       .  A
C290        O296   1.317       .  A
C291        C292   1.398       .  A
C291        H302   1.085       .  S
C292        C301   1.350       .  A
C292        C293   1.380       .  A
C293        C294   1.401       .  A
C293        O299   1.319       .  A
C294        C295   1.402       .  A
C294        H303   1.084       .  S
C295        C298   1.356       .  A
O296        C297   1.327       .  A
C297        C298   1.391       .  A
C298        H304   1.083       .  S
O299        C300   1.330       .  A
C300        C301   1.391       .  A
C301        H305   1.084       .  S
C306        C311   1.380       .  A
C306        C307   1.402       .  A
C306        O312   1.319       .  A
C307        C308   1.403       .  A
C307        H318   1.082       .  S
C308        C317   1.358       .  A
C308        C309   1.382       .  A
C309        C310   1.398       .  A
C309        O315   1.317       .  A
C310        C311   1.398       .  A
C310        H319   1.082       .  S
C311        C314   1.352       .  A
O312        C313   1.331       .  A
C313        C314   1.390       .  A
C314        H320   1.082       .  S
O315        C316   1.327       .  A
C316        C317   1.391       .  A
C317        H321   1.082       .  S
C322        C327   1.379       .  A
C322        C323   1.410       .  A
C322        O328   1.319       .  A
C323        C324   1.407       .  A
C323        H334   1.082       .  S
C324        C333   1.372       .  A
C324        C325   1.379       .  A
C325        C326   1.405       .  A
C325        O331   1.316       .  A
C326        C327   1.402       .  A
C326        H335   1.082       .  S
C327        C330   1.367       .  A
O328        C329   1.335       .  A
C329        C330   1.390       .  A
C330        H336   1.082       .  S
O331        C332   1.332       .  A
C332        C333   1.394       .  A
C333        H337   1.082       .  S
C338        C343   1.378       .  A
C338        C339   1.409       .  A
C338        O344   1.319       .  A
C339        C340   1.406       .  A
C339        H350   1.082       .  S
C340        C349   1.372       .  A
C340        C341   1.378       .  A
C341        C342   1.409       .  A
C341        O347   1.319       .  A
C342        C343   1.406       .  A
C342        H351   1.082       .  S
C343        C346   1.372       .  A
O344        C345   1.334       .  A
C345        C346   1.393       .  A
C346        H352   1.082       .  S
O347        C348   1.335       .  A
C348        C349   1.393       .  A
C349        H353   1.082       .  S
C354        C359   1.379       .  A
C354        C355   1.406       .  A
C354        O360   1.317       .  A
C355        C356   1.403       .  A
C355        H366   1.083       .  S
C356        C365   1.368       .  A
C356        C357   1.379       .  A
C357        C358   1.409       .  A
C357        O363   1.319       .  A
C358        C359   1.406       .  A
C358        H367   1.083       .  S
C359        C362   1.371       .  A
O360        C361   1.333       .  A
C361        C362   1.392       .  A
C362        H368   1.082       .  S
O363        C364   1.334       .  A
C364        C365   1.391       .  A
C365        H369   1.083       .  S
C370        C375   1.381       .  A
C370        C371   1.397       .  A
C370        O376   1.312       .  A
C371        C372   1.396       .  A
C371        H382   1.083       .  S
C372        C381   1.355       .  A
C372        C373   1.382       .  A
C373        C374   1.402       .  A
C373        O379   1.316       .  A
C374        C375   1.401       .  A
C374        H383   1.083       .  S
C375        C378   1.361       .  A
O376        C377   1.327       .  A
C377        C378   1.390       .  A
C378        H384   1.083       .  S
O379        C380   1.328       .  A
C380        C381   1.385       .  A
C381        H385   1.083       .  S
C386        C391   1.381       .  A
C386        C387   1.402       .  A
C386        O392   1.318       .  A
C387        C388   1.403       .  A
C387        H398   1.083       .  S
C388        C397   1.361       .  A
C388        C389   1.381       .  A
C389        C390   1.401       .  A
C389        O395   1.318       .  A
C390        C391   1.400       .  A
C390        H399   1.083       .  S
C391        C394   1.359       .  A
O392        C393   1.329       .  A
C393        C394   1.387       .  A
C394        H400   1.083   1_455  S
O395        C396   1.330       .  A
C396        C397   1.392       .  A
C397        H401   1.083       .  S
C402        C407   1.381       .  A
C402        C403   1.403       .  A
C402        O408   1.318       .  A
C403        C404   1.402       .  A
C403        H414   1.083       .  S
C404        C413   1.363       .  A
C404        C405   1.381       .  A
C405        C406   1.401       .  A
C405        O411   1.315       .  A
C406        C407   1.399       .  A
C406        H415   1.083       .  S
C407        C410   1.359       .  A
O408        C409   1.329       .  A
C409        C410   1.387       .  A
C410        H977   1.083       .  S
O411        C412   1.329       .  A
C412        C413   1.391       .  A
C413        H417   1.083       .  S
H416        C971   1.083   1_545  S
C418        C423   1.382       .  A
C418        C419   1.395       .  A
C418        O424   1.319       .  A
C419        C420   1.399       .  A
C419        H430   1.082       .  S
C420        C429   1.346       .  A
C420        C421   1.378       .  A
C421        C422   1.400       .  A
C421        O427   1.321       .  A
C422        C423   1.403       .  A
C422        H431   1.083       .  S
C423        C426   1.353       .  A
O424        C425   1.326       .  A
C425        C426   1.392       .  A
C426        H432   1.083       .  S
O427        C428   1.332       .  A
C428        C429   1.395       .  A
C429        H433   1.078       .  S
C434        C439   1.381       .  A
C434        C435   1.400       .  A
C434        O440   1.318       .  A
C435       C1558   1.402   1_455  A
C435       H1568   1.082   1_455  S
C436        C445   1.355       .  A
C436       C1557   1.403       .  A
C436       C1559   1.382       .  A
C437        C438   1.395       .  A
C437       C1558   1.382   1_455  A
C437       O1565   1.315   1_455  A
C438        C439   1.395       .  A
C438        H447   1.083       .  S
C439        C442   1.348       .  A
O440        C441   1.329       .  A
C441        C442   1.388       .  A
C442        H448   1.083       .  S
O443        C444   1.326       .  A
O443       C1559   1.316       .  A
C444        C445   1.392       .  A
C445        H449   1.082       .  S
H446       C1557   1.082       .  S
C450        C455   1.383       .  A
C450       C1012   1.392   1_545  A
C450        O456   1.314       .  A
C451        C452   1.398       .  A
C451       C1011   1.397       .  A
C451        H462   1.082       .  S
C452        C461   1.350       .  A
C452        C453   1.381       .  A
C453        C454   1.402       .  A
C453        O459   1.321       .  A
C454       C1016   1.404       .  A
C454        H463   1.082       .  S
C455        C458   1.354       .  A
C455       C1015   1.402       .  A
O456        C457   1.323       .  A
C457        C458   1.391       .  A
C458        H464   1.083       .  S
O459        C460   1.331       .  A
C460        C461   1.387       .  A
C461        H465   1.078       .  S
C466        C471   1.379       .  A
C466        C467   1.401       .  A
C466        O472   1.313       .  A
C467        C468   1.399       .  A
C467        H478   1.081       .  S
C468        C477   1.361       .  A
C468        C469   1.381       .  A
C469        C470   1.401       .  A
C469        O475   1.313       .  A
C470        C471   1.399       .  A
C470        H479   1.081       .  S
C471        C474   1.360       .  A
O472        C473   1.330       .  A
C473        C474   1.391       .  A
C474        H480   1.082       .  S
O475        C476   1.329       .  A
C476        C477   1.388       .  A
C477        H481   1.082       .  S
C482        C487   1.380       .  A
C482        C483   1.402       .  A
C482        O488   1.319       .  A
C483       C1606   1.403       .  A
C483        H494   1.083       .  S
C484        C493   1.357       .  A
C484        C485   1.382   1_455  A
C484       C1605   1.401   1_455  A
C485       C1608   1.400       .  A
C485        O491   1.317   1_655  A
C486        C487   1.399       .  A
C486       C1607   1.398       .  A
C486        H495   1.083       .  S
C487        C490   1.352       .  A
O488        C489   1.331       .  A
C489        C490   1.392       .  A
C490        H496   1.082       .  S
O491        C492   1.329       .  A
C492        C493   1.390       .  A
C493        H497   1.083       .  S
C498        C503   1.380       .  A
C498        C499   1.400       .  A
C498        O504   1.312       .  A
C499       C1061   1.398       .  A
C499        H510   1.081       .  S
C500        C509   1.363       .  A
C500        C501   1.380       .  A
C500       C1060   1.400       .  A
C501       C1063   1.404       .  A
C501        O507   1.316       .  A
C502        C503   1.398   1_565  A
C502       C1062   1.401       .  A
C502        H511   1.082       .  S
C503        C506   1.359       .  A
O504        C505   1.329       .  A
C505        C506   1.391       .  A
C506        H512   1.081       .  S
O507        C508   1.331       .  A
C508        C509   1.390       .  A
C509        H513   1.082       .  S
C514        C519   1.380       .  A
C514        C515   1.406       .  A
C514        O520   1.317       .  A
C515        C516   1.403       .  A
C515        H526   1.083       .  S
C516        C525   1.368       .  A
C516        C517   1.379       .  A
C517        C518   1.405       .  A
C517        O523   1.316       .  A
C518        C519   1.402       .  A
C518        H527   1.083       .  S
C519        C522   1.367       .  A
O520        C521   1.332       .  A
C521        C522   1.390       .  A
C522        H528   1.083       .  S
O523        C524   1.332       .  A
C524        C525   1.390       .  A
C525        H529   1.083       .  S
C530        C535   1.379       .  A
C530       C1092   1.406       .  A
C530        O536   1.317       .  A
C531        C532   1.407       .  A
C531       C1091   1.409   1_545  A
C531        H542   1.084       .  S
C532        C541   1.370       .  A
C532        C533   1.379       .  A
C533        C534   1.406   1_545  A
C533        O539   1.319       .  A
C534       C1096   1.404       .  A
C534        H543   1.085       .  S
C535        C538   1.369       .  A
C535       C1095   1.405       .  A
O536        C537   1.333       .  A
C537        C538   1.391       .  A
C538        H544   1.083       .  S
O539        C540   1.333       .  A
C540        C541   1.393       .  A
C541        H545   1.083       .  S
C546        C551   1.380       .  A
C546        C547   1.405       .  A
C546        O552   1.325       .  A
C547       C1670   1.406   1_455  A
C547        H558   1.081       .  S
C548        C557   1.361       .  A
C548        C549   1.380       .  A
C548       C1669   1.405       .  A
C549        C550   1.406       .  A
C549        O555   1.324       .  A
C550       C1673   1.406       .  A
C550        H559   1.081       .  S
C551        C554   1.364       .  A
C551       C1672   1.410   1_455  A
O552        C553   1.331       .  A
C553        C554   1.398       .  A
C554        H560   1.082       .  S
O555        C556   1.332       .  A
C556        C557   1.392       .  A
C557        H561   1.082       .  S
C562        H563   1.108       .  S
C562        C568   1.518       .  S
C562        C567   1.520       .  S
C562        C566   1.525       .  S
C564        H565   1.111       .  S
C564        C570   1.556       .  S
C564        C569   1.555       .  S
C564        C571   1.558       .  S
C566        C569   1.375       .  D
C566       C1050   1.477       .  S
C567        C570   1.375       .  D
C567       C1066   1.485       .  S
C568        C571   1.375       .  D
C568       C1034   1.478       .  S
C569       C1117   1.493       .  S
C570       C1101   1.482       .  S
C571       C1085   1.482       .  S
C572        H573   1.111       .  S
C572        C578   1.555       .  S
C572        C577   1.554       .  S
C572        C576   1.565       .  S
C574        H575   1.102       .  S
C574        C580   1.520       .  S
C574        C579   1.518       .  S
C574        C581   1.518       .  S
C576        C579   1.379       .  D
C576       C1082   1.482       .  S
C577        C580   1.372       .  D
C577       C1114   1.484       .  S
C578        C581   1.364       .  D
C578       C1098   1.487       .  S
C579        C989   1.487       .  S
C580       C1002   1.479       .  S
C581       C1021   1.469       .  S
Zn582       O586   1.959       .  S
Zn582       O587   2.030       .  S
Zn582       O591   2.023       .  S
Zn582       O598   2.035       .  S
Zn583       O586   1.964       .  S
Zn583       O588   2.012       .  S
Zn583       O590   1.995       .  S
Zn583       O594   2.020       .  S
Zn584       O586   1.956       .  S
Zn584       O589   2.015       .  S
Zn584       O592   1.993       .  S
Zn584       O595   2.041       .  S
Zn585       O586   1.931       .  S
Zn585       O593   1.967       .  S
Zn585       O596   1.970       .  S
Zn585       O597   1.993       .  S
O587        C599   1.275       .  A
O588        C600   1.272       .  A
O589        C601   1.274       .  A
O590        C599   1.270       .  A
O591        C601   1.274       .  A
O592        C600   1.271       .  A
O593        C602   1.265       .  A
O594        C603   1.272       .  A
O595        C602   1.274       .  A
O596        C603   1.266       .  A
O597        C604   1.270       .  A
O598        C604   1.275       .  A
C599        C973   1.467       .  S
C600        C938   1.459       .  S
C601        C957   1.467       .  S
C602       C1037   1.461       .  S
C603       C1069   1.456       .  S
C604       C1053   1.466       .  S
C605        H606   1.113       .  S
C605        C611   1.517       .  S
C605       C1170   1.518   1_455  S
C607        H608   1.110       .  S
C607       C1173   1.558   1_455  S
C607        C614   1.560       .  S
C609       C1166   1.518   1_565  S
C609        C612   1.370       .  D
C609        C941   1.461       .  S
C610        C613   1.373       .  D
C610        C970   1.467       .  S
C611        C614   1.372       .  D
C611        C954   1.468       .  S
C612       C1168   1.557   1_565  S
C612        C922   1.491       .  S
C613        C890   1.495       .  S
C614        C909   1.491       .  S
C615        H616   1.110       .  S
C615        C621   1.564       .  S
C615        C620   1.561       .  S
C615        C619   1.562       .  S
C617        H618   1.107       .  S
C617        C623   1.516       .  S
C617        C622   1.518       .  S
C617        C624   1.516       .  S
C619        C622   1.375       .  D
C619        C893   1.495       .  S
C620        C623   1.372       .  D
C620        C906   1.493       .  S
C621        C624   1.375       .  D
C621        C925   1.491       .  S
C622        C874   1.475       .  S
C623        C861   1.473       .  S
C624        C842   1.481       .  S
C625        H626   1.113       .  S
C625        C631   1.513       .  S
C625        C630   1.517       .  S
C625        C629   1.515       .  S
C627        H628   1.109       .  S
C627        C633   1.564       .  S
C627        C632   1.564       .  S
C627        C634   1.566       .  S
C629        C632   1.374       .  D
C629        C765   1.471       .  S
C630        C633   1.375       .  D
C630        C778   1.466       .  S
C631        C634   1.373       .  D
C631        C749   1.462       .  S
C632        C810   1.496       .  S
C633        C794   1.501       .  S
C634        C829   1.502       .  S
C635        H636   1.109       .  S
C635       C1762   1.560       .  S
C635       C1200   1.564   1_565  S
C637        H638   1.113       .  S
C637       C1765   1.517       .  S
C637       C1203   1.517   1_565  S
C639       C1196   1.569       .  S
C639        C642   1.376       .  D
C639        C797   1.500       .  S
C640       C1757   1.563   1_565  S
C640        C643   1.375       .  D
C640        C826   1.500       .  S
C641        C644   1.372       .  D
C641        C813   1.495       .  S
C642       C1198   1.513       .  S
C642        C733   1.471       .  S
C643       C1759   1.517   1_565  S
C643        C714   1.467       .  S
C644        C698   1.466       .  S
Zn645       O649   1.956       .  S
Zn645       O650   2.040       .  S
Zn645       O654   2.003       .  S
Zn645       O661   2.003       .  S
Zn646       O649   1.922       .  S
Zn646       O651   1.956       .  S
Zn646       O653   1.941       .  S
Zn646       O657   1.963       .  S
Zn647       O649   1.956       .  S
Zn647       O652   2.021       .  S
Zn647       O655   2.051       .  S
Zn647       O658   2.014       .  S
Zn648       O649   1.964       .  S
Zn648       O656   2.030       .  S
Zn648       O659   2.026       .  S
Zn648       O660   2.021       .  S
O650        C662   1.273       .  A
O651        C663   1.264       .  A
O652        C664   1.275       .  A
O653        C662   1.263       .  A
O654        C664   1.272       .  A
O655        C663   1.276       .  A
O656        C665   1.275       .  A
O657        C666   1.266       .  A
O658        C665   1.274       .  A
O659        C666   1.274       .  A
O660        C667   1.273       .  A
O661        C667   1.273       .  A
C662        C986   1.459       .  S
C663       C1018   1.461       .  S
C664        C701   1.465       .  S
C665        C730   1.471       .  S
C666       C1005   1.456       .  S
C667        C717   1.465       .  S
Zn668      O1794   1.955   1_455  S
Zn668       O673   2.024   1_554  S
Zn668       O677   2.013       .  S
Zn668      O1806   2.020   1_455  S
Zn669       O672   1.923   1_556  S
Zn669      O1235   1.967       .  S
Zn669      O1798   1.972       .  S
Zn670      O1233   1.949   1_455  S
Zn670       O678   2.025   1_554  S
Zn670      O1803   1.992   1_455  S
Zn671       O679   2.013       .  S
Zn671       O682   2.034   1_554  S
O672      Zn1790   1.956       .  S
O672      Zn1231   1.951       .  S
O673        C685   1.273       .  A
O674      Zn1230   1.964   1_455  S
O674        C686   1.266       .  A
O675        C687   1.274       .  A
O676      Zn1791   1.972   1_455  S
O676        C685   1.268       .  A
O677        C687   1.273       .  A
O678        C686   1.272       .  A
O679        C688   1.273       .  A
O680        C689   1.266       .  A
O681      Zn1792   1.988       .  S
O681        C688   1.271       .  A
O682        C689   1.274       .  A
O683        C690   1.273       .  A
O684      Zn1790   2.023       .  S
O684        C690   1.274       .  A
C685        C858   1.457       .  S
C686        C877   1.457       .  S
C687        C762   1.469       .  S
C688        C746   1.460       .  S
C689        C845   1.461       .  S
C690        C781   1.466       .  S
C691        C696   1.381       .  A
C691        C692   1.402       .  A
C691        O697   1.317       .  A
C692        C693   1.401       .  A
C692        H703   1.082       .  S
C693        C702   1.361       .  A
C693        C694   1.381       .  A
C694        C695   1.401       .  A
C694        O700   1.316       .  A
C695        C696   1.400       .  A
C695        H704   1.082       .  S
C696        C699   1.359       .  A
O697        C698   1.329       .  A
C698        C699   1.386       .  A
C699        H705   1.082       .  S
O700        C701   1.330       .  A
C701        C702   1.391       .  A
C702        H706   1.082       .  S
C707        C712   1.382       .  A
C707        C708   1.398       .  A
C707        O713   1.316       .  A
C708        C709   1.398       .  A
C708        H719   1.085       .  S
C709        C718   1.356       .  A
C709        C710   1.381       .  A
C710        C711   1.403       .  A
C710        O716   1.319       .  A
C711        C712   1.403       .  A
C711        H720   1.085       .  S
C712        C715   1.360       .  A
O713        C714   1.327       .  A
C714        C715   1.389       .  A
C715       H1843   1.084       .  S
O716        C717   1.331       .  A
C717        C718   1.389       .  A
C718        H722   1.084       .  S
H721       C1837   1.083       .  S
C723        C728   1.381       .  A
C723        C724   1.404       .  A
C723        O729   1.321       .  A
C724        C725   1.403       .  A
C724        H735   1.083       .  S
C725        C734   1.361       .  A
C725        C726   1.381       .  A
C726        C727   1.401       .  A
C726        O732   1.318       .  A
C727        C728   1.401       .  A
C727        H736   1.083       .  S
C728        C731   1.359       .  A
O729        C730   1.331       .  A
C730        C731   1.391       .  A
C731        H737   1.083       .  S
O732        C733   1.328       .  A
C733        C734   1.389       .  A
C734        H738   1.083       .  S
C739        C744   1.381       .  A
C739        C740   1.401       .  A
C739        O745   1.317       .  A
C740        C741   1.400       .  A
C740        H751   1.082       .  S
C741        C750   1.358       .  A
C741        C742   1.382       .  A
C742        C743   1.398       .  A
C742        O748   1.314       .  A
C743        C744   1.398       .  A
C743        H752   1.082       .  S
C744        C747   1.355       .  A
O745        C746   1.329       .  A
C746        C747   1.389       .  A
C747        H753   1.083       .  S
O748        C749   1.326       .  A
C749        C750   1.387       .  A
C750        H754   1.082       .  S
C755        C760   1.381       .  A
C755        C756   1.402       .  A
C755        O761   1.318       .  A
C756        C757   1.401       .  A
C756        H767   1.082       .  S
C757        C766   1.360       .  A
C757        C758   1.381       .  A
C758        C759   1.403       .  A
C758        O764   1.319       .  A
C759        C760   1.403       .  A
C759        H768   1.082       .  S
C760        C763   1.362       .  A
O761        C762   1.330       .  A
C762        C763   1.392       .  A
C763        H769   1.082       .  S
O764        C765   1.330       .  A
C765        C766   1.387       .  A
C766        H770   1.082       .  S
C771        C776   1.382       .  A
C771        C772   1.399       .  A
C771        O777   1.316       .  A
C772        C773   1.399       .  A
C772        H783   1.084       .  S
C773        C782   1.356       .  A
C773        C774   1.381       .  A
C774        C775   1.403       .  A
C774        O780   1.319       .  A
C775        C776   1.403       .  A
C775        H784   1.084       .  S
C776        C779   1.361       .  A
O777        C778   1.327       .  A
C778        C779   1.388       .  A
C779        H785   1.083       .  S
O780        C781   1.331       .  A
C781        C782   1.389       .  A
C782        H786   1.083       .  S
C787        C792   1.377       .  A
C787        C788   1.409       .  A
C787        O793   1.316       .  A
C788        C789   1.405       .  A
C788        H799   1.082       .  S
C789        C798   1.374       .  A
C789        C790   1.377       .  A
C790        C791   1.409       .  A
C790        O796   1.315       .  A
C791        C792   1.405       .  A
C791        H800   1.083       .  S
C792        C795   1.374       .  A
O793        C794   1.335       .  A
C794        C795   1.395       .  A
C795        H801   1.082       .  S
O796        C797   1.335       .  A
C797        C798   1.395       .  A
C798       H1924   1.082       .  S
H802       C1920   1.082       .  S
C803        C808   1.377       .  A
C803        C804   1.407       .  A
C803        O809   1.314       .  A
C804        C805   1.403       .  A
C804        H815   1.082       .  S
C805        C814   1.371       .  A
C805        C806   1.377       .  A
C806        C807   1.410       .  A
C806        O812   1.316       .  A
C807        C808   1.406       .  A
C807        H816   1.082       .  S
C808        C811   1.374       .  A
O809        C810   1.333       .  A
C810        C811   1.395       .  A
C811        H817   1.082       .  S
O812        C813   1.336       .  A
C813        C814   1.392       .  A
C814        H818   1.082       .  S
C819        C824   1.377       .  A
C819        C820   1.410       .  A
C819        O825   1.316       .  A
C820        C821   1.406       .  A
C820        H831   1.082       .  S
C821        C830   1.376       .  A
C821        C822   1.377       .  A
C822        C823   1.409       .  A
C822        O828   1.315       .  A
C823        C824   1.405       .  A
C823        H832   1.082       .  S
C824        C827   1.374       .  A
O825        C826   1.335       .  A
C826        C827   1.395       .  A
C827       H1955   1.082       .  S
O828        C829   1.335       .  A
C829        C830   1.395       .  A
C830        H834   1.082       .  S
H833       C1949   1.082       .  S
C835        C840   1.380       .  A
C835        C836   1.401       .  A
C835        O841   1.319       .  A
C836        C837   1.402       .  A
C836        H847   1.082       .  S
C837        C846   1.356       .  A
C837        C838   1.382       .  A
C838        C839   1.398       .  A
C838        O844   1.318       .  A
C839        C840   1.399       .  A
C839        H848   1.082       .  S
C840        C843   1.352       .  A
O841        C842   1.330       .  A
C842        C843   1.392       .  A
C843        H849   1.082       .  S
O844        C845   1.327       .  A
C845        C846   1.391       .  A
C846        H850   1.082       .  S
C851        C856   1.382       .  A
C851        C852   1.397       .  A
C851        O857   1.316       .  A
C852        C853   1.398       .  A
C852        H863   1.085       .  S
C853        C862   1.352       .  A
C853        C854   1.381       .  A
C854        C855   1.399       .  A
C854        O860   1.317       .  A
C855        C856   1.400       .  A
C855        H864   1.084       .  S
C856        C859   1.355       .  A
O857        C858   1.327       .  A
C858        C859   1.390       .  A
C859        H865   1.083       .  S
O860        C861   1.329       .  A
C861        C862   1.389       .  A
C862        H866   1.084       .  S
C867        C872   1.380       .  A
C867        C868   1.401       .  A
C867        O873   1.318       .  A
C868        C869   1.402       .  A
C868        H879   1.082       .  S
C869        C878   1.356       .  A
C869        C870   1.382       .  A
C870        C871   1.396       .  A
C870        O876   1.316       .  A
C871        C872   1.397       .  A
C871        H880   1.082       .  S
C872        C875   1.350       .  A
O873        C874   1.330       .  A
C874        C875   1.389       .  A
C875        H881   1.082       .  S
O876        C877   1.326       .  A
C877        C878   1.391       .  A
C878        H882   1.082       .  S
C883        C888   1.378       .  A
C883        C884   1.409       .  A
C883        O889   1.318       .  A
C884        C885   1.406       .  A
C884        H895   1.082       .  S
C885        C894   1.372       .  A
C885        C886   1.378       .  A
C886        C887   1.409       .  A
C886        O892   1.318       .  A
C887        C888   1.406       .  A
C887        H896   1.082       .  S
C888        C891   1.372       .  A
O889        C890   1.335       .  A
C890        C891   1.393       .  A
C891        H897   1.082       .  S
O892        C893   1.334       .  A
C893        C894   1.394       .  A
C894        H898   1.082       .  S
C899        C904   1.378       .  A
C899        C900   1.408       .  A
C899        O905   1.317       .  A
C900        C901   1.405       .  A
C900        H911   1.082       .  S
C901        C910   1.371       .  A
C901        C902   1.378       .  A
C902        C903   1.408       .  A
C902        O908   1.317       .  A
C903        C904   1.405       .  A
C903        H912   1.082       .  S
C904        C907   1.371       .  A
O905        C906   1.334       .  A
C906        C907   1.393       .  A
C907        H913   1.082       .  S
O908        C909   1.334       .  A
C909        C910   1.392       .  A
C910        H914   1.082       .  S
C915        C920   1.378       .  A
C915        C916   1.409       .  A
C915        O921   1.318       .  A
C916        C917   1.405       .  A
C916        H927   1.083       .  S
C917        C926   1.372       .  A
C917        C918   1.378       .  A
C918        C919   1.408       .  A
C918        O924   1.317       .  A
C919        C920   1.404       .  A
C919        H928   1.083       .  S
C920        C923   1.371       .  A
O921        C922   1.335       .  A
C922        C923   1.392       .  A
C923        H929   1.082       .  S
O924        C925   1.333       .  A
C925        C926   1.393       .  A
C926        H930   1.082       .  S
C931        C936   1.381       .  A
C931        C932   1.395       .  A
C931        O937   1.310       .  A
C932        C933   1.394       .  A
C932        H943   1.083       .  S
C933        C942   1.354       .  A
C933        C934   1.381       .  A
C934        C935   1.405       .  A
C934        O940   1.317       .  A
C935        C936   1.403       .  A
C935        H944   1.083       .  S
C936        C939   1.364       .  A
O937        C938   1.326       .  A
C938        C939   1.393       .  A
C939        H945   1.083       .  S
O940        C941   1.330       .  A
C941        C942   1.383       .  A
C942        H946   1.083       .  S
C947        C952   1.381       .  A
C947        C948   1.402       .  A
C947        O953   1.318       .  A
C948        C949   1.402       .  A
C948        H959   1.083       .  S
C949        C958   1.361       .  A
C949        C950   1.381       .  A
C950        C951   1.401       .  A
C950        O956   1.317       .  A
C951        C952   1.400       .  A
C951        H960   1.083       .  S
C952        C955   1.358       .  A
O953        C954   1.329       .  A
C954        C955   1.388       .  A
C955        H961   1.083   1_455  S
O956        C957   1.329       .  A
C957        C958   1.391       .  A
C958        H962   1.083       .  S
C963        C968   1.381       .  A
C963        C964   1.403       .  A
C963        O969   1.318       .  A
C964        C965   1.402       .  A
C964        H975   1.083       .  S
C965        C974   1.363       .  A
C965        C966   1.381       .  A
C966        C967   1.402       .  A
C966        O972   1.316       .  A
C967        C968   1.400       .  A
C967        H976   1.083       .  S
C968        C971   1.360       .  A
O969        C970   1.329       .  A
C970        C971   1.387       .  A
O972        C973   1.330       .  A
C973        C974   1.391       .  A
C974        H978   1.083       .  S
C979        C984   1.383       .  A
C979        C980   1.395       .  A
C979        O985   1.318       .  A
C980        C981   1.398       .  A
C980        H991   1.083       .  S
C981        C990   1.346       .  A
C981        C982   1.378       .  A
C982        C983   1.399       .  A
C982        O988   1.319       .  A
C983        C984   1.402       .  A
C983        H992   1.083       .  S
C984        C987   1.353       .  A
O985        C986   1.326       .  A
C986        C987   1.392       .  A
C987        H993   1.083       .  S
O988        C989   1.331       .  A
C989        C990   1.395       .  A
C990        H994   1.079       .  S
C995       C1000   1.380       .  A
C995        C996   1.400   1_455  A
C995       O1001   1.320       .  A
C996       C2119   1.403       .  A
C996       H2129   1.082       .  S
C997       C2118   1.402       .  A
C997       C1006   1.355       .  A
C997       C2120   1.382       .  A
C998       C2119   1.382   1_455  A
C998        C999   1.396       .  A
C998       O2126   1.317   1_455  A
C999       C1000   1.398       .  A
C999       H1008   1.083       .  S
C1000      C1003   1.348       .  A
O1001      C1002   1.330       .  A
C1002      C1003   1.392       .  A
C1003      H1009   1.082       .  S
O1004      C2120   1.314       .  A
O1004      C1005   1.325       .  A
C1005      C1006   1.392       .  A
C1006      H1010   1.082       .  S
H1007      C2118   1.082       .  S
C1011      C1016   1.382       .  A
C1011      O1017   1.319       .  A
C1012      C1013   1.394       .  A
C1012      H1023   1.083       .  S
C1013      C1022   1.344       .  A
C1013      C1014   1.381       .  A
C1014      C1015   1.400   1_565  A
C1014      O1020   1.319       .  A
C1015      H1024   1.082       .  S
C1016      C1019   1.357       .  A
O1017      C1018   1.326       .  A
C1018      C1019   1.392       .  A
C1019      H1025   1.083       .  S
O1020      C1021   1.330       .  A
C1021      C1022   1.385       .  A
C1022      H1026   1.079       .  S
C1027      C1032   1.379       .  A
C1027      C1028   1.402       .  A
C1027      O1033   1.312       .  A
C1028      C1029   1.399       .  A
C1028      H1039   1.081       .  S
C1029      C1038   1.363       .  A
C1029      C1030   1.380       .  A
C1030      C1031   1.404       .  A
C1030      O1036   1.314       .  A
C1031      C1032   1.400       .  A
C1031      H1040   1.081       .  S
C1032      C1035   1.363       .  A
O1033      C1034   1.330       .  A
C1034      C1035   1.393       .  A
C1035      H1041   1.081       .  S
O1036      C1037   1.331       .  A
C1037      C1038   1.388       .  A
C1038      H1042   1.082       .  S
C1043      C1048   1.380       .  A
C1043      C1044   1.401       .  A
C1043      O1049   1.318       .  A
C1044      C2167   1.402       .  A
C1044      H1055   1.083       .  S
C1045      C2166   1.403       .  A
C1045      C1054   1.359       .  A
C1045      C1046   1.381   1_455  A
C1046      C2169   1.400       .  A
C1046      O1052   1.318   1_655  A
C1047      C2168   1.397       .  A
C1047      C1048   1.397       .  A
C1047      H1056   1.083       .  S
C1048      C1051   1.351       .  A
O1049      C1050   1.330       .  A
C1050      C1051   1.391       .  A
C1051      H1057   1.083       .  S
O1052      C1053   1.329       .  A
C1053      C1054   1.392       .  A
C1054      H1058   1.083       .  S
C1059      C1064   1.378       .  A
C1059      C1060   1.402       .  A
C1059      O1065   1.314       .  A
C1060      H1071   1.081       .  S
C1061      C1070   1.361   1_545  A
C1061      C1062   1.381   1_545  A
C1062      O1068   1.313       .  A
C1063      C1064   1.401       .  A
C1063      H1072   1.081       .  S
C1064      C1067   1.362       .  A
O1065      C1066   1.331       .  A
C1066      C1067   1.394       .  A
C1067      H1073   1.080       .  S
O1068      C1069   1.329       .  A
C1069      C1070   1.388       .  A
C1070      H1074   1.082       .  S
C1075      C1080   1.379       .  A
C1075      C1076   1.405       .  A
C1075      O1081   1.317       .  A
C1076      C1077   1.403       .  A
C1076      H1087   1.083       .  S
C1077      C1086   1.367       .  A
C1077      C1078   1.380       .  A
C1078      C1079   1.407       .  A
C1078      O1084   1.318       .  A
C1079      C1080   1.404       .  A
C1079      H1088   1.083       .  S
C1080      C1083   1.368       .  A
O1081      C1082   1.332       .  A
C1082      C1083   1.391       .  A
C1083      H1089   1.083       .  S
O1084      C1085   1.333       .  A
C1085      C1086   1.390       .  A
C1086      H1090   1.083       .  S
C1091      C1096   1.379       .  A
C1091      O1097   1.320       .  A
C1092      C1093   1.404       .  A
C1092      H1103   1.085       .  S
C1093      C1102   1.368       .  A
C1093      C1094   1.380       .  A
C1094      C1095   1.407       .  A
C1094      O1100   1.319       .  A
C1095      H1104   1.085       .  S
C1096      C1099   1.369       .  A
O1097      C1098   1.335       .  A
C1098      C1099   1.391       .  A
C1099      H1105   1.083       .  S
O1100      C1101   1.333       .  A
C1101      C1102   1.391       .  A
C1102      H1106   1.083       .  S
C1107      C1112   1.380       .  A
C1107      C1108   1.405       .  A
C1107      O1113   1.323       .  A
C1108      C2231   1.405   1_455  A
C1108      H1119   1.081       .  S
C1109      C2230   1.408       .  A
C1109      C1118   1.363       .  A
C1109      C1110   1.379       .  A
C1110      C1111   1.408       .  A
C1110      O1116   1.326       .  A
C1111      C2234   1.409       .  A
C1111      H1120   1.081       .  S
C1112      C2233   1.407   1_455  A
C1112      C1115   1.363       .  A
O1113      C1114   1.331       .  A
C1114      C1115   1.394       .  A
C1115      H1121   1.082       .  S
O1116      C1117   1.333       .  A
C1117      C1118   1.396       .  A
C1118      H1122   1.082       .  S
C1123      H1124   1.110       .  S
C1123      C1129   1.515       .  S
C1123      C1128   1.521       .  S
C1123      C1127   1.526       .  S
C1125      H1126   1.111       .  S
C1125      C1131   1.551       .  S
C1125      C1130   1.551       .  S
C1125      C1132   1.560       .  S
C1127      C1130   1.376       .  D
C1127      C1611   1.476       .  S
C1128      C1131   1.372       .  D
C1128      C1627   1.478       .  S
C1129      C1132   1.375       .  D
C1129      C1595   1.478       .  S
C1130      C1678   1.491       .  S
C1131      C1662   1.479       .  S
C1132      C1646   1.482       .  S
C1133      H1134   1.111       .  S
C1133      C1139   1.553       .  S
C1133      C1138   1.552       .  S
C1133      C1137   1.564       .  S
C1135      H1136   1.103       .  S
C1135      C1141   1.519       .  S
C1135      C1140   1.516       .  S
C1135      C1142   1.512       .  S
C1137      C1140   1.379       .  D
C1137      C1643   1.480       .  S
C1138      C1141   1.371       .  D
C1138      C1675   1.481       .  S
C1139      C1142   1.362       .  D
C1139      C1659   1.483       .  S
C1140      C1550   1.485       .  S
C1141      C1563   1.476       .  S
C1142      C1582   1.462       .  S
Zn1143     O1147   1.958       .  S
Zn1143     O1148   2.021       .  S
Zn1143     O1152   2.029       .  S
Zn1143     O1159   2.031       .  S
Zn1144     O1147   1.963       .  S
Zn1144     O1149   2.016       .  S
Zn1144     O1151   1.990       .  S
Zn1144     O1155   2.024       .  S
Zn1145     O1147   1.951       .  S
Zn1145     O1150   2.007       .  S
Zn1145     O1153   1.987       .  S
Zn1145     O1156   2.028       .  S
Zn1146     O1147   1.927       .  S
Zn1146     O1154   1.969       .  S
Zn1146     O1157   1.973       .  S
Zn1146     O1158   1.981       .  S
O1148      C1160   1.274       .  A
O1149      C1161   1.273       .  A
O1150      C1162   1.272       .  A
O1151      C1160   1.270       .  A
O1152      C1162   1.275       .  A
O1153      C1161   1.271       .  A
O1154      C1163   1.266       .  A
O1155      C1164   1.272       .  A
O1156      C1163   1.272       .  A
O1157      C1164   1.266       .  A
O1158      C1165   1.269       .  A
O1159      C1165   1.275       .  A
C1160      C1534   1.461       .  S
C1161      C1499   1.459       .  S
C1162      C1518   1.468       .  S
C1163      C1598   1.458       .  S
C1164      C1630   1.459       .  S
C1165      C1614   1.462       .  S
C1166      H1167   1.113       .  S
C1166      C1172   1.516       .  S
C1166      C1732   1.520   1_545  S
C1168      H1169   1.110   1_545  S
C1168      C1735   1.559   1_545  S
C1168      C1175   1.563       .  S
C1170      C1173   1.371       .  D
C1170      C1502   1.460       .  S
C1171      C1727   1.516       .  S
C1171      C1174   1.370       .  D
C1171      C1531   1.461       .  S
C1172      C1175   1.371       .  D
C1172      C1515   1.467       .  S
C1173      C1483   1.494       .  S
C1174      C1729   1.558       .  S
C1174      C1451   1.492       .  S
C1175      C1470   1.493       .  S
C1176      H1177   1.110       .  S
C1176      C1182   1.567       .  S
C1176      C1181   1.560       .  S
C1176      C1180   1.564       .  S
C1178      H1179   1.107       .  S
C1178      C1184   1.517       .  S
C1178      C1183   1.518       .  S
C1178      C1185   1.516       .  S
C1180      C1183   1.375       .  D
C1180      C1454   1.493       .  S
C1181      C1184   1.371       .  D
C1181      C1467   1.495       .  S
C1182      C1185   1.376       .  D
C1182      C1486   1.494       .  S
C1183      C1435   1.481       .  S
C1184      C1422   1.469       .  S
C1185      C1403   1.480       .  S
C1186      H1187   1.113       .  S
C1186      C1192   1.511       .  S
C1186      C1191   1.516       .  S
C1186      C1190   1.520       .  S
C1188      H1189   1.109       .  S
C1188      C1194   1.560       .  S
C1188      C1193   1.561       .  S
C1188      C1195   1.560       .  S
C1190      C1193   1.375       .  D
C1190      C1326   1.466       .  S
C1191      C1194   1.374       .  D
C1191      C1339   1.469       .  S
C1192      C1195   1.369       .  D
C1192      C1310   1.462       .  S
C1193      C1371   1.497       .  S
C1194      C1355   1.495       .  S
C1195      C1390   1.493       .  S
C1196      H1197   1.109       .  S
C1196      C1763   1.562       .  S
C1198      H1199   1.113       .  S
C1198      C1766   1.513       .  S
C1200      C1203   1.375       .  D
C1200      C1358   1.494       .  S
C1201      C1204   1.370       .  D
C1201      C1387   1.492       .  S
C1202      C1757   1.565       .  S
C1202      C1205   1.373       .  D
C1202      C1374   1.498       .  S
C1203      C1294   1.472       .  S
C1204      C1275   1.462       .  S
C1205      C1759   1.511       .  S
C1205      C1259   1.466       .  S
Zn1206     O1210   1.949       .  S
Zn1206     O1211   2.041       .  S
Zn1206     O1215   2.011       .  S
Zn1206     O1222   1.993       .  S
Zn1207     O1210   1.915       .  S
Zn1207     O1212   1.954       .  S
Zn1207     O1214   1.937       .  S
Zn1207     O1218   1.962       .  S
Zn1208     O1210   1.941       .  S
Zn1208     O1213   2.004       .  S
Zn1208     O1216   2.027       .  S
Zn1208     O1219   2.013       .  S
Zn1209     O1210   1.951       .  S
Zn1209     O1217   2.021       .  S
Zn1209     O1220   2.031       .  S
Zn1209     O1221   2.013       .  S
O1211      C1223   1.273       .  A
O1212      C1224   1.265       .  A
O1213      C1225   1.274       .  A
O1214      C1223   1.262       .  A
O1215      C1225   1.273       .  A
O1216      C1224   1.274       .  A
O1217      C1226   1.274       .  A
O1218      C1227   1.266       .  A
O1219      C1226   1.273       .  A
O1220      C1227   1.275       .  A
O1221      C1228   1.273       .  A
O1222      C1228   1.273       .  A
C1223      C1547   1.459       .  S
C1224      C1579   1.454       .  S
C1225      C1262   1.463       .  S
C1226      C1291   1.468       .  S
C1227      C1566   1.457       .  S
C1228      C1278   1.459       .  S
Zn1229     O1234   2.021   1_554  S
Zn1229     O1238   2.008       .  S
Zn1230     O1233   1.917   1_556  S
Zn1230     O1802   1.961       .  S
Zn1231     O1797   2.024       .  S
Zn1231     O1239   2.043   1_554  S
Zn1232     O1794   1.957       .  S
Zn1232     O1240   2.008       .  S
Zn1232     O1243   2.040       .  S
Zn1232     O1805   2.001       .  S
O1233     Zn1793   1.957       .  S
O1234      C1246   1.273       .  A
O1235      C1247   1.267       .  A
O1236     Zn1792   2.001   1_545  S
O1236      C1248   1.272       .  A
O1237      C1246   1.266       .  A
O1238      C1248   1.271       .  A
O1239      C1247   1.275       .  A
O1240      C1249   1.272       .  A
O1241     Zn1791   1.975       .  S
O1241      C1250   1.268       .  A
O1242      C1249   1.272       .  A
O1243      C1250   1.273   1_554  A
O1244     Zn1793   2.003   1_545  S
O1244      C1251   1.273       .  A
O1245      C1251   1.275       .  A
C1246      C1419   1.453       .  S
C1247      C1438   1.462       .  S
C1248      C1323   1.460       .  S
C1249      C1307   1.460       .  S
C1250      C1406   1.464       .  S
C1251      C1342   1.467       .  S
C1252      C1257   1.382       .  A
C1252      C1253   1.399       .  A
C1252      O1258   1.314       .  A
C1253      C1254   1.398       .  A
C1253      H1264   1.082       .  S
C1254      C1263   1.357       .  A
C1254      C1255   1.381       .  A
C1255      C1256   1.403       .  A
C1255      O1261   1.318       .  A
C1256      C1257   1.402       .  A
C1256      H1265   1.082       .  S
C1257      C1260   1.361       .  A
O1258      C1259   1.327       .  A
C1259      C1260   1.389       .  A
C1260      H1266   1.082       .  S
O1261      C1262   1.331       .  A
C1262      C1263   1.389       .  A
C1263      H1267   1.082       .  S
C1268      C1273   1.382       .  A
C1268      C1269   1.396       .  A
C1268      O1274   1.312       .  A
C1269      C1270   1.395       .  A
C1269      H1280   1.085       .  S
C1270      C1279   1.354       .  A
C1270      C1271   1.381       .  A
C1271      C1272   1.403       .  A
C1271      O1277   1.318       .  A
C1272      C1273   1.402       .  A
C1272      H1281   1.084       .  S
C1273      C1276   1.361       .  A
O1274      C1275   1.325       .  A
C1275      C1276   1.389       .  A
O1277      C1278   1.330       .  A
C1278      C1279   1.387       .  A
C1279      H1283   1.084       .  S
C1284      C1289   1.381       .  A
C1284      C1285   1.401       .  A
C1284      O1290   1.318       .  A
C1285      C1286   1.400       .  A
C1285      H1296   1.083       .  S
C1286      C1295   1.359       .  A
C1286      C1287   1.381       .  A
C1287      C1288   1.404       .  A
C1287      O1293   1.320       .  A
C1288      C1289   1.404       .  A
C1288      H1297   1.083       .  S
C1289      C1292   1.362       .  A
O1290      C1291   1.329       .  A
C1291      C1292   1.393       .  A
C1292      H1298   1.083       .  S
O1293      C1294   1.331       .  A
C1294      C1295   1.387       .  A
C1295      H1299   1.083   1_655  S
C1300      C1305   1.381       .  A
C1300      C1301   1.400       .  A
C1300      O1306   1.316       .  A
C1301      C1302   1.399       .  A
C1301      H1312   1.082       .  S
C1302      C1311   1.358       .  A
C1302      C1303   1.382       .  A
C1303      C1304   1.399       .  A
C1303      O1309   1.314       .  A
C1304      C1305   1.398       .  A
C1304      H1313   1.082       .  S
C1305      C1308   1.357       .  A
O1306      C1307   1.329       .  A
C1307      C1308   1.389       .  A
C1308      H1314   1.083       .  S
O1309      C1310   1.327       .  A
C1310      C1311   1.387       .  A
C1311      H1315   1.082       .  S
C1316      C1321   1.381       .  A
C1316      C1317   1.402       .  A
C1316      O1322   1.318       .  A
C1317      C1318   1.402       .  A
C1317      H1328   1.082       .  S
C1318      C1327   1.358       .  A
C1318      C1319   1.382       .  A
C1319      C1320   1.398       .  A
C1319      O1325   1.316       .  A
C1320      C1321   1.398       .  A
C1320      H1329   1.082       .  S
C1321      C1324   1.355       .  A
O1322      C1323   1.330       .  A
C1323      C1324   1.388       .  A
C1324      H1330   1.083       .  S
O1325      C1326   1.327       .  A
C1326      C1327   1.389       .  A
C1327      H1331   1.083       .  S
C1332      C1337   1.382       .  A
C1332      C1333   1.401       .  A
C1332      O1338   1.317       .  A
C1333      C1334   1.401       .  A
C1333      H1344   1.084       .  S
C1334      C1343   1.359       .  A
C1334      C1335   1.381       .  A
C1335      C1336   1.402       .  A
C1335      O1341   1.318       .  A
C1336      C1337   1.401       .  A
C1336      H1345   1.084       .  S
C1337      C1340   1.360       .  A
O1338      C1339   1.329       .  A
C1339      C1340   1.387       .  A
C1340      H1346   1.083       .  S
O1341      C1342   1.330       .  A
C1342      C1343   1.391       .  A
C1343      H1347   1.083       .  S
C1348      C1353   1.377       .  A
C1348      C1349   1.406       .  A
C1348      O1354   1.312       .  A
C1349      C1350   1.401       .  A
C1349      H1360   1.083       .  S
C1350      C1359   1.369       .  A
C1350      C1351   1.377       .  A
C1351      C1352   1.409       .  A
C1351      O1357   1.315       .  A
C1352      C1353   1.405       .  A
C1352      H1361   1.083       .  S
C1353      C1356   1.373       .  A
O1354      C1355   1.333       .  A
C1355      C1356   1.395       .  A
C1356      H1362   1.082       .  S
O1357      C1358   1.335       .  A
C1358      C1359   1.393       .  A
C1364      C1369   1.377       .  A
C1364      C1365   1.411       .  A
C1364      O1370   1.320       .  A
C1365      C1366   1.408       .  A
C1365      H1376   1.082       .  S
C1366      C1375   1.376       .  A
C1366      C1367   1.377       .  A
C1367      C1368   1.407       .  A
C1367      O1373   1.315       .  A
C1368      C1369   1.403       .  A
C1368      H1377   1.082       .  S
C1369      C1372   1.370       .  A
O1370      C1371   1.336       .  A
C1371      C1372   1.393       .  A
C1372      H1378   1.082       .  S
O1373      C1374   1.334       .  A
C1374      C1375   1.395       .  A
C1375      H1379   1.082       .  S
C1380      C1385   1.378       .  A
C1380      C1381   1.410       .  A
C1380      O1386   1.319       .  A
C1381      C1382   1.406       .  A
C1381      H1392   1.082       .  S
C1382      C1391   1.374       .  A
C1382      C1383   1.378       .  A
C1383      C1384   1.407       .  A
C1383      O1389   1.315       .  A
C1384      C1385   1.404       .  A
C1384      H1393   1.082       .  S
C1385      C1388   1.371       .  A
O1386      C1387   1.335       .  A
C1387      C1388   1.392       .  A
O1389      C1390   1.334       .  A
C1390      C1391   1.394       .  A
C1391      H1395   1.082       .  S
C1396      C1401   1.380       .  A
C1396      C1397   1.400       .  A
C1396      O1402   1.320       .  A
C1397      C1398   1.402       .  A
C1397      H1408   1.082       .  S
C1398      C1407   1.355       .  A
C1398      C1399   1.382       .  A
C1399      C1400   1.401       .  A
C1399      O1405   1.320       .  A
C1400      C1401   1.402       .  A
C1400      H1409   1.082       .  S
C1401      C1404   1.354       .  A
O1402      C1403   1.330       .  A
C1403      C1404   1.393       .  A
C1404      H1410   1.082       .  S
O1405      C1406   1.329       .  A
C1406      C1407   1.390       .  A
C1407      H1411   1.082       .  S
C1412      C1417   1.382       .  A
C1412      C1413   1.396       .  A
C1412      O1418   1.315       .  A
C1413      C1414   1.397       .  A
C1413      H1424   1.085       .  S
C1414      C1423   1.350       .  A
C1414      C1415   1.381       .  A
C1415      C1416   1.398       .  A
C1415      O1421   1.316       .  A
C1416      C1417   1.399       .  A
C1416      H1425   1.084       .  S
C1417      C1420   1.354       .  A
O1418      C1419   1.326       .  A
C1419      C1420   1.389       .  A
C1420      H1426   1.083       .  S
O1421      C1422   1.328       .  A
C1422      C1423   1.388       .  A
C1423      H1427   1.084       .  S
C1428      C1433   1.380       .  A
C1428      C1429   1.402       .  A
C1428      O1434   1.320       .  A
C1429      C1430   1.403       .  A
C1429      H1440   1.082       .  S
C1430      C1439   1.357       .  A
C1430      C1431   1.382       .  A
C1431      C1432   1.399       .  A
C1431      O1437   1.318       .  A
C1432      C1433   1.399       .  A
C1432      H1441   1.082       .  S
C1433      C1436   1.353       .  A
O1434      C1435   1.331       .  A
C1435      C1436   1.391       .  A
C1436      H1442   1.082       .  S
O1437      C1438   1.328       .  A
C1438      C1439   1.392       .  A
C1439      H1443   1.082       .  S
C1444      C1449   1.378       .  A
C1444      C1445   1.409       .  A
C1444      O1450   1.318       .  A
C1445      C1446   1.406       .  A
C1445      H1456   1.082       .  S
C1446      C1455   1.372       .  A
C1446      C1447   1.378       .  A
C1447      C1448   1.408       .  A
C1447      O1453   1.318       .  A
C1448      C1449   1.405       .  A
C1448      H1457   1.082       .  S
C1449      C1452   1.371       .  A
O1450      C1451   1.335       .  A
C1451      C1452   1.392       .  A
C1452      H1458   1.082       .  S
O1453      C1454   1.334       .  A
C1454      C1455   1.394       .  A
C1455      H1459   1.082       .  S
C1460      C1465   1.378       .  A
C1460      C1461   1.409       .  A
C1460      O1466   1.318       .  A
C1461      C1462   1.406       .  A
C1461      H1472   1.082       .  S
C1462      C1471   1.373       .  A
C1462      C1463   1.378       .  A
C1463      C1464   1.410       .  A
C1463      O1469   1.318       .  A
C1464      C1465   1.407       .  A
C1464      H1473   1.082       .  S
C1465      C1468   1.373       .  A
O1466      C1467   1.335       .  A
C1467      C1468   1.394       .  A
C1468      H1474   1.082       .  S
O1469      C1470   1.335       .  A
C1470      C1471   1.393       .  A
C1471      H1475   1.082       .  S
C1476      C1481   1.378       .  A
C1476      C1477   1.409       .  A
C1476      O1482   1.319       .  A
C1477      C1478   1.406       .  A
C1477      H1488   1.083       .  S
C1478      C1487   1.371       .  A
C1478      C1479   1.378       .  A
C1479      C1480   1.409       .  A
C1479      O1485   1.319       .  A
C1480      C1481   1.406       .  A
C1480      H1489   1.083       .  S
C1481      C1484   1.371       .  A
O1482      C1483   1.335       .  A
C1483      C1484   1.393       .  A
C1484      H1490   1.082       .  S
O1485      C1486   1.334       .  A
C1486      C1487   1.394       .  A
C1487      H1491   1.082       .  S
C1492      C1497   1.381       .  A
C1492      C1493   1.397       .  A
C1492      O1498   1.311       .  A
C1493      C1494   1.395       .  A
C1493      H1504   1.083       .  S
C1494      C1503   1.356       .  A
C1494      C1495   1.381       .  A
C1495      C1496   1.403       .  A
C1495      O1501   1.316       .  A
C1496      C1497   1.401       .  A
C1496      H1505   1.083       .  S
C1497      C1500   1.363       .  A
O1498      C1499   1.327       .  A
C1499      C1500   1.391       .  A
C1500      H1506   1.083       .  S
O1501      C1502   1.329       .  A
C1502      C1503   1.384       .  A
C1503      H1507   1.083       .  S
C1508      C1513   1.382       .  A
C1508      C1509   1.402       .  A
C1508      O1514   1.318       .  A
C1509      C1510   1.403       .  A
C1509      H1520   1.083       .  S
C1510      C1519   1.361       .  A
C1510      C1511   1.381       .  A
C1511      C1512   1.401       .  A
C1511      O1517   1.317       .  A
C1512      C1513   1.400       .  A
C1512      H1521   1.083       .  S
C1513      C1516   1.358       .  A
O1514      C1515   1.329       .  A
C1515      C1516   1.387       .  A
C1516      H1522   1.083       .  S
O1517      C1518   1.329       .  A
C1518      C1519   1.392       .  A
C1519      H1523   1.083       .  S
C1524      C1529   1.382       .  A
C1524      C1525   1.401       .  A
C1524      O1530   1.315       .  A
C1525      C1526   1.400       .  A
C1525      H1536   1.083       .  S
C1526      C1535   1.360       .  A
C1526      C1527   1.381       .  A
C1527      C1528   1.400       .  A
C1527      O1533   1.314       .  A
C1528      C1529   1.398       .  A
C1528      H1537   1.083       .  S
C1529      C1532   1.358       .  A
O1530      C1531   1.327       .  A
C1531      C1532   1.386       .  A
C1532      H2099   1.083       .  S
O1533      C1534   1.329       .  A
C1534      C1535   1.390       .  A
C1535      H1539   1.083       .  S
H1538      C2093   1.083   1_545  S
C1540      C1545   1.383       .  A
C1540      C1541   1.395       .  A
C1540      O1546   1.318       .  A
C1541      C1542   1.398       .  A
C1541      H1552   1.083       .  S
C1542      C1551   1.346       .  A
C1542      C1543   1.378       .  A
C1543      C1544   1.400       .  A
C1543      O1549   1.320       .  A
C1544      C1545   1.403       .  A
C1544      H1553   1.083       .  S
C1545      C1548   1.352       .  A
O1546      C1547   1.326       .  A
C1547      C1548   1.392       .  A
C1548      H1554   1.083       .  S
O1549      C1550   1.331       .  A
C1550      C1551   1.395       .  A
C1551      H1555   1.079       .  S
C1556      C1561   1.380       .  A
C1556      C1557   1.401       .  A
C1556      O1562   1.320       .  A
C1558      C1567   1.355       .  A
C1559      C1560   1.395       .  A
C1560      C1561   1.396       .  A
C1560      H1569   1.083       .  S
C1561      C1564   1.346       .  A
O1562      C1563   1.330       .  A
C1563      C1564   1.390       .  A
C1564      H1570   1.082       .  S
O1565      C1566   1.326       .  A
C1566      C1567   1.392       .  A
C1567      H1571   1.082       .  S
C1572      C1577   1.383       .  A
C1572      C2134   1.392   1_545  A
C1572      O1578   1.314       .  A
C1573      C2133   1.395       .  A
C1573      C1574   1.396       .  A
C1573      H1584   1.083       .  S
C1574      C1583   1.347       .  A
C1574      C1575   1.382       .  A
C1575      C1576   1.398       .  A
C1575      O1581   1.317       .  A
C1576      C2138   1.399       .  A
C1576      H1585   1.083       .  S
C1577      C2137   1.405       .  A
C1577      C1580   1.357       .  A
O1578      C1579   1.324       .  A
C1579      C1580   1.392       .  A
C1580      H1586   1.082       .  S
O1581      C1582   1.327       .  A
C1582      C1583   1.385       .  A
C1583      H1587   1.081       .  S
C1588      C1593   1.379       .  A
C1588      C1589   1.403       .  A
C1588      O1594   1.314       .  A
C1589      C1590   1.400       .  A
C1589      H1600   1.081       .  S
C1590      C1599   1.363       .  A
C1590      C1591   1.381       .  A
C1591      C1592   1.401       .  A
C1591      O1597   1.313       .  A
C1592      C1593   1.398       .  A
C1592      H1601   1.081       .  S
C1593      C1596   1.361       .  A
O1594      C1595   1.331       .  A
C1595      C1596   1.392       .  A
C1596      H1602   1.081       .  S
O1597      C1598   1.329       .  A
C1598      C1599   1.389       .  A
C1599      H1603   1.082       .  S
C1604      C1609   1.380       .  A
C1604      C1605   1.400       .  A
C1604      O1610   1.317       .  A
C1605      H1616   1.083   1_655  S
C1606      C1615   1.358       .  A
C1606      C1607   1.382       .  A
C1607      O1613   1.317       .  A
C1608      C1609   1.400       .  A
C1608      H1617   1.083       .  S
C1609      C1612   1.354       .  A
O1610      C1611   1.329       .  A
C1611      C1612   1.391       .  A
C1612      H1618   1.083       .  S
O1613      C1614   1.328       .  A
C1614      C1615   1.392       .  A
C1615      H1619   1.083       .  S
C1620      C1625   1.379       .  A
C1620      C1621   1.400       .  A
C1620      O1626   1.312       .  A
C1621      C2183   1.398       .  A
C1621      H1632   1.081       .  S
C1622      C2182   1.399       .  A
C1622      C1631   1.362       .  A
C1622      C1623   1.381       .  A
C1623      C2185   1.400       .  A
C1623      O1629   1.312       .  A
C1624      C2184   1.402       .  A
C1624      C1625   1.400   1_565  A
C1624      H1633   1.081       .  S
C1625      C1628   1.360       .  A
O1626      C1627   1.329       .  A
C1627      C1628   1.392       .  A
C1628      H1634   1.080       .  S
O1629      C1630   1.328       .  A
C1630      C1631   1.389       .  A
C1631      H1635   1.082       .  S
C1636      C1641   1.380       .  A
C1636      C1637   1.405       .  A
C1636      O1642   1.317       .  A
C1637      C1638   1.403       .  A
C1637      H1648   1.083       .  S
C1638      C1647   1.367       .  A
C1638      C1639   1.379       .  A
C1639      C1640   1.406       .  A
C1639      O1645   1.317       .  A
C1640      C1641   1.403       .  A
C1640      H1649   1.083       .  S
C1641      C1644   1.367       .  A
O1642      C1643   1.332       .  A
C1643      C1644   1.390       .  A
C1644      H1650   1.083       .  S
O1645      C1646   1.333       .  A
C1646      C1647   1.390       .  A
C1647      H1651   1.083       .  S
C1652      C1657   1.379       .  A
C1652      C2214   1.407       .  A
C1652      O1658   1.317       .  A
C1653      C2213   1.407   1_545  A
C1653      C1654   1.405       .  A
C1653      H1664   1.084       .  S
C1654      C1663   1.368       .  A
C1654      C1655   1.380       .  A
C1655      C1656   1.404   1_545  A
C1655      O1661   1.318       .  A
C1656      C2218   1.402       .  A
C1656      H1665   1.085       .  S
C1657      C2217   1.404       .  A
C1657      C1660   1.369       .  A
O1658      C1659   1.334       .  A
C1659      C1660   1.391       .  A
C1660      H1666   1.083       .  S
O1661      C1662   1.332       .  A
C1662      C1663   1.392       .  A
C1663      H1667   1.083       .  S
C1668      C1673   1.380       .  A
C1668      C1669   1.404       .  A
C1668      O1674   1.322       .  A
C1669      H1680   1.081       .  S
C1670      C1679   1.361       .  A
C1670      C1671   1.379       .  A
C1671      C1672   1.409       .  A
C1671      O1677   1.327       .  A
C1672      H1681   1.081       .  S
C1673      C1676   1.362       .  A
O1674      C1675   1.330       .  A
C1675      C1676   1.393       .  A
C1676      H1682   1.082       .  S
O1677      C1678   1.334       .  A
C1678      C1679   1.394       .  A
C1679      H1683   1.082       .  S
C1684      H1685   1.109       .  S
C1684      C1690   1.514       .  S
C1684      C1689   1.519       .  S
C1684      C1688   1.526       .  S
C1686      H1687   1.111       .  S
C1686      C1692   1.553       .  S
C1686      C1691   1.551       .  S
C1686      C1693   1.557       .  S
C1688      C1691   1.375       .  D
C1688      C2172   1.482       .  S
C1689      C1692   1.374       .  D
C1689      C2188   1.477       .  S
C1690      C1693   1.372       .  D
C1690      C2156   1.469       .  S
C1691      C2239   1.485       .  S
C1692      C2223   1.483       .  S
C1693      C2207   1.482       .  S
C1694      H1695   1.111       .  S
C1694      C1700   1.553       .  S
C1694      C1699   1.554       .  S
C1694      C1698   1.563       .  S
C1696      H1697   1.099       .  S
C1696      C1702   1.521       .  S
C1696      C1701   1.518       .  S
C1696      C1703   1.518       .  S
C1698      C1701   1.380       .  D
C1698      C2204   1.481       .  S
C1699      C1702   1.372       .  D
C1699      C2236   1.490       .  S
C1700      C1703   1.365       .  D
C1700      C2220   1.478       .  S
C1701      C2111   1.490       .  S
C1702      C2124   1.476       .  S
C1703      C2143   1.475       .  S
Zn1704     O1708   1.960       .  S
Zn1704     O1709   2.030       .  S
Zn1704     O1713   2.021       .  S
Zn1704     O1720   2.026       .  S
Zn1705     O1708   1.958       .  S
Zn1705     O1710   2.017       .  S
Zn1705     O1712   1.998       .  S
Zn1705     O1716   2.024       .  S
Zn1706     O1708   1.951       .  S
Zn1706     O1711   2.004       .  S
Zn1706     O1714   1.993       .  S
Zn1706     O1717   2.030       .  S
Zn1707     O1708   1.930       .  S
Zn1707     O1715   1.962       .  S
Zn1707     O1718   1.975       .  S
Zn1707     O1719   1.980       .  S
O1709      C1721   1.274       .  A
O1710      C1722   1.273       .  A
O1711      C1723   1.273       .  A
O1712      C1721   1.271       .  A
O1713      C1723   1.273       .  A
O1714      C1722   1.272       .  A
O1715      C1724   1.265       .  A
O1716      C1725   1.273       .  A
O1717      C1724   1.272       .  A
O1718      C1725   1.266       .  A
O1719      C1726   1.269       .  A
O1720      C1726   1.275       .  A
C1721      C2095   1.467       .  S
C1722      C2060   1.460       .  S
C1723      C2079   1.465       .  S
C1724      C2159   1.455       .  S
C1725      C2191   1.459       .  S
C1726      C2175   1.460       .  S
C1727      H1728   1.113       .  S
C1727      C1733   1.516       .  S
C1729      H1730   1.110       .  S
C1729      C1736   1.561       .  S
C1731      C1734   1.370       .  D
C1731      C2063   1.465       .  S
C1732      C1735   1.372       .  D
C1732      C2092   1.470       .  S
C1733      C1736   1.373       .  D
C1733      C2076   1.467       .  S
C1734      C2044   1.490       .  S
C1735      C2012   1.489       .  S
C1736      C2031   1.490       .  S
C1737      H1738   1.110       .  S
C1737      C1743   1.562       .  S
C1737      C1742   1.559       .  S
C1737      C1741   1.560       .  S
C1739      H1740   1.105       .  S
C1739      C1745   1.516       .  S
C1739      C1744   1.517       .  S
C1739      C1746   1.518       .  S
C1741      C1744   1.375       .  D
C1741      C2015   1.489       .  S
C1742      C1745   1.372       .  D
C1742      C2028   1.492       .  S
C1743      C1746   1.375       .  D
C1743      C2047   1.489       .  S
C1744      C1996   1.478       .  S
C1745      C1983   1.475       .  S
C1746      C1964   1.480       .  S
C1747      H1748   1.113       .  S
C1747      C1753   1.513       .  S
C1747      C1752   1.517       .  S
C1747      C1751   1.517       .  S
C1749      H1750   1.109       .  S
C1749      C1755   1.566       .  S
C1749      C1754   1.567       .  S
C1749      C1756   1.563       .  S
C1751      C1754   1.375       .  D
C1751      C1887   1.475       .  S
C1752      C1755   1.374       .  D
C1752      C1900   1.466       .  S
C1753      C1756   1.369       .  D
C1753      C1871   1.458       .  S
C1754      C1932   1.496       .  S
C1755      C1916   1.501       .  S
C1756      C1951   1.501       .  S
C1757      H1758   1.108       .  S
C1759      H1760   1.113       .  S
C1761      C1764   1.375       .  D
C1761      C1919   1.501       .  S
C1762      C1765   1.371       .  D
C1762      C1948   1.499       .  S
C1763      C1766   1.373       .  D
C1763      C1935   1.496       .  S
C1764      C1855   1.469       .  S
C1765      C1836   1.462       .  S
C1766      C1820   1.463       .  S
Zn1767     O1771   1.957       .  S
Zn1767     O1772   2.035       .  S
Zn1767     O1776   2.003       .  S
Zn1767     O1783   1.993       .  S
Zn1768     O1771   1.920       .  S
Zn1768     O1773   1.943       .  S
Zn1768     O1775   1.949       .  S
Zn1768     O1779   1.964       .  S
Zn1769     O1771   1.954       .  S
Zn1769     O1774   2.002       .  S
Zn1769     O1777   2.024       .  S
Zn1769     O1780   2.008       .  S
Zn1770     O1771   1.962       .  S
Zn1770     O1778   2.027       .  S
Zn1770     O1781   2.036       .  S
Zn1770     O1782   2.023       .  S
O1772      C1784   1.272       .  A
O1773      C1785   1.263       .  A
O1774      C1786   1.272       .  A
O1775      C1784   1.263       .  A
O1776      C1786   1.272       .  A
O1777      C1785   1.272       .  A
O1778      C1787   1.273       .  A
O1779      C1788   1.267       .  A
O1780      C1787   1.272       .  A
O1781      C1788   1.275       .  A
O1782      C1789   1.274       .  A
O1783      C1789   1.272       .  A
C1784      C2108   1.460       .  S
C1785      C2140   1.449       .  S
C1786      C1823   1.461       .  S
C1787      C1852   1.469       .  S
C1788      C2127   1.460       .  S
C1789      C1839   1.462       .  S
Zn1790     O1795   2.023   1_554  S
Zn1790     O1799   2.019       .  S
Zn1791     O1794   1.925   1_556  S
Zn1792     O1800   2.029   1_554  S
Zn1793     O1801   2.009       .  S
Zn1793     O1804   2.038   1_554  S
O1795      C1807   1.273       .  A
O1796      C1808   1.266       .  A
O1797      C1809   1.274       .  A
O1798      C1807   1.267       .  A
O1799      C1809   1.273       .  A
O1800      C1808   1.273       .  A
O1801      C1810   1.272       .  A
O1802      C1811   1.266       .  A
O1803      C1810   1.271       .  A
O1804      C1811   1.275       .  A
O1805      C1812   1.273       .  A
O1806      C1812   1.273       .  A
C1807      C1980   1.457       .  S
C1808      C1999   1.460       .  S
C1809      C1884   1.470       .  S
C1810      C1868   1.459       .  S
C1811      C1967   1.460       .  S
C1812      C1903   1.465       .  S
C1813      C1818   1.382       .  A
C1813      C1814   1.400       .  A
C1813      O1819   1.315       .  A
C1814      C1815   1.399       .  A
C1814      H1825   1.082       .  S
C1815      C1824   1.358       .  A
C1815      C1816   1.381       .  A
C1816      C1817   1.401       .  A
C1816      O1822   1.316       .  A
C1817      C1818   1.400       .  A
C1817      H1826   1.082       .  S
C1818      C1821   1.359       .  A
O1819      C1820   1.327       .  A
C1820      C1821   1.387       .  A
C1821      H1827   1.082       .  S
O1822      C1823   1.329       .  A
C1823      C1824   1.389       .  A
C1824      H1828   1.082       .  S
C1829      C1834   1.382       .  A
C1829      C1830   1.398       .  A
C1829      O1835   1.314       .  A
C1830      C1831   1.398       .  A
C1830      H1841   1.085       .  S
C1831      C1840   1.356       .  A
C1831      C1832   1.381       .  A
C1832      C1833   1.401       .  A
C1832      O1838   1.317       .  A
C1833      C1834   1.400       .  A
C1833      H1842   1.084       .  S
C1834      C1837   1.359       .  A
O1835      C1836   1.326       .  A
C1836      C1837   1.387       .  A
O1838      C1839   1.330       .  A
C1839      C1840   1.389       .  A
C1840      H1844   1.084       .  S
C1845      C1850   1.381       .  A
C1845      C1846   1.403       .  A
C1845      O1851   1.320       .  A
C1846      C1847   1.402       .  A
C1846      H1857   1.083       .  S
C1847      C1856   1.360       .  A
C1847      C1848   1.382       .  A
C1848      C1849   1.401       .  A
C1848      O1854   1.318       .  A
C1849      C1850   1.401       .  A
C1849      H1858   1.083       .  S
C1850      C1853   1.358       .  A
O1851      C1852   1.331       .  A
C1852      C1853   1.390       .  A
C1853      H1859   1.083       .  S
O1854      C1855   1.328       .  A
C1855      C1856   1.388       .  A
C1856      H1860   1.083   1_655  S
C1861      C1866   1.381       .  A
C1861      C1862   1.401       .  A
C1861      O1867   1.317       .  A
C1862      C1863   1.400       .  A
C1862      H1873   1.082       .  S
C1863      C1872   1.358       .  A
C1863      C1864   1.383       .  A
C1864      C1865   1.396       .  A
C1864      O1870   1.313       .  A
C1865      C1866   1.396       .  A
C1865      H1874   1.082       .  S
C1866      C1869   1.354       .  A
O1867      C1868   1.330       .  A
C1868      C1869   1.388       .  A
C1869      H1875   1.083       .  S
O1870      C1871   1.325       .  A
C1871      C1872   1.387       .  A
C1872      H1876   1.082       .  S
C1877      C1882   1.380       .  A
C1877      C1878   1.404       .  A
C1877      O1883   1.320       .  A
C1878      C1879   1.403       .  A
C1878      H1889   1.082       .  S
C1879      C1888   1.362       .  A
C1879      C1880   1.381       .  A
C1880      C1881   1.402       .  A
C1880      O1886   1.318       .  A
C1881      C1882   1.402       .  A
C1881      H1890   1.082       .  S
C1882      C1885   1.361       .  A
O1883      C1884   1.331       .  A
C1884      C1885   1.391       .  A
C1885      H1891   1.082       .  S
O1886      C1887   1.329       .  A
C1887      C1888   1.390       .  A
C1888      H1892   1.083       .  S
C1893      C1898   1.382       .  A
C1893      C1894   1.399       .  A
C1893      O1899   1.315       .  A
C1894      C1895   1.399       .  A
C1894      H1905   1.084       .  S
C1895      C1904   1.357       .  A
C1895      C1896   1.381       .  A
C1896      C1897   1.403       .  A
C1896      O1902   1.319       .  A
C1897      C1898   1.402       .  A
C1897      H1906   1.084       .  S
C1898      C1901   1.361       .  A
O1899      C1900   1.327       .  A
C1900      C1901   1.388       .  A
C1901      H1907   1.083       .  S
O1902      C1903   1.331       .  A
C1903      C1904   1.389       .  A
C1904      H1908   1.083       .  S
C1909      C1914   1.377       .  A
C1909      C1910   1.412       .  A
C1909      O1915   1.319       .  A
C1910      C1911   1.408       .  A
C1910      H1921   1.082       .  S
C1911      C1920   1.376       .  A
C1911      C1912   1.377       .  A
C1912      C1913   1.409       .  A
C1912      O1918   1.317       .  A
C1913      C1914   1.405       .  A
C1913      H1922   1.083       .  S
C1914      C1917   1.373       .  A
O1915      C1916   1.337       .  A
C1916      C1917   1.394       .  A
C1917      H1923   1.082       .  S
O1918      C1919   1.335       .  A
C1919      C1920   1.396       .  A
C1925      C1930   1.377       .  A
C1925      C1926   1.410       .  A
C1925      O1931   1.316       .  A
C1926      C1927   1.405       .  A
C1926      H1937   1.082       .  S
C1927      C1936   1.374       .  A
C1927      C1928   1.377       .  A
C1928      C1929   1.407       .  A
C1928      O1934   1.314       .  A
C1929      C1930   1.403       .  A
C1929      H1938   1.082       .  S
C1930      C1933   1.371       .  A
O1931      C1932   1.335       .  A
C1932      C1933   1.393       .  A
C1933      H1939   1.082       .  S
O1934      C1935   1.334       .  A
C1935      C1936   1.394       .  A
C1936      H1940   1.082       .  S
C1941      C1946   1.377       .  A
C1941      C1942   1.412       .  A
C1941      O1947   1.319       .  A
C1942      C1943   1.408       .  A
C1942      H1953   1.082       .  S
C1943      C1952   1.377       .  A
C1943      C1944   1.377       .  A
C1944      C1945   1.410       .  A
C1944      O1950   1.317       .  A
C1945      C1946   1.406       .  A
C1945      H1954   1.082       .  S
C1946      C1949   1.374       .  A
O1947      C1948   1.336       .  A
C1948      C1949   1.394       .  A
O1950      C1951   1.336       .  A
C1951      C1952   1.395       .  A
C1952      H1956   1.082       .  S
C1957      C1962   1.380       .  A
C1957      C1958   1.400       .  A
C1957      O1963   1.319       .  A
C1958      C1959   1.402       .  A
C1958      H1969   1.082       .  S
C1959      C1968   1.355       .  A
C1959      C1960   1.382       .  A
C1960      C1961   1.398       .  A
C1960      O1966   1.318       .  A
C1961      C1962   1.399       .  A
C1961      H1970   1.082       .  S
C1962      C1965   1.351       .  A
O1963      C1964   1.330       .  A
C1964      C1965   1.392       .  A
C1965      H1971   1.082       .  S
O1966      C1967   1.327       .  A
C1967      C1968   1.392       .  A
C1968      H1972   1.082       .  S
C1973      C1978   1.382       .  A
C1973      C1974   1.395       .  A
C1973      O1979   1.314       .  A
C1974      C1975   1.396       .  A
C1974      H1985   1.085       .  S
C1975      C1984   1.350       .  A
C1975      C1976   1.380       .  A
C1976      C1977   1.401       .  A
C1976      O1982   1.318       .  A
C1977      C1978   1.402       .  A
C1977      H1986   1.084       .  S
C1978      C1981   1.358       .  A
O1979      C1980   1.326       .  A
C1980      C1981   1.391       .  A
C1981      H1987   1.083       .  S
O1982      C1983   1.331       .  A
C1983      C1984   1.388       .  A
C1984      H1988   1.084       .  S
C1989      C1994   1.380       .  A
C1989      C1990   1.400       .  A
C1989      O1995   1.318       .  A
C1990      C1991   1.401       .  A
C1990      H2001   1.082       .  S
C1991      C2000   1.356       .  A
C1991      C1992   1.382       .  A
C1992      C1993   1.398       .  A
C1992      O1998   1.317       .  A
C1993      C1994   1.399       .  A
C1993      H2002   1.082       .  S
C1994      C1997   1.352       .  A
O1995      C1996   1.330       .  A
C1996      C1997   1.392       .  A
C1997      H2003   1.082       .  S
O1998      C1999   1.328       .  A
C1999      C2000   1.391       .  A
C2000      H2004   1.082       .  S
C2005      C2010   1.378       .  A
C2005      C2006   1.407       .  A
C2005      O2011   1.317       .  A
C2006      C2007   1.404       .  A
C2006      H2017   1.082       .  S
C2007      C2016   1.369       .  A
C2007      C2008   1.378       .  A
C2008      C2009   1.408       .  A
C2008      O2014   1.317       .  A
C2009      C2010   1.405       .  A
C2009      H2018   1.082       .  S
C2010      C2013   1.370       .  A
O2011      C2012   1.334       .  A
C2012      C2013   1.392       .  A
C2013      H2019   1.082       .  S
O2014      C2015   1.333       .  A
C2015      C2016   1.392       .  A
C2016      H2020   1.082       .  S
C2021      C2026   1.378       .  A
C2021      C2022   1.406       .  A
C2021      O2027   1.315       .  A
C2022      C2023   1.403       .  A
C2022      H2033   1.082       .  S
C2023      C2032   1.369       .  A
C2023      C2024   1.378       .  A
C2024      C2025   1.410       .  A
C2024      O2030   1.318       .  A
C2025      C2026   1.406       .  A
C2025      H2034   1.082       .  S
C2026      C2029   1.373       .  A
O2027      C2028   1.333       .  A
C2028      C2029   1.394       .  A
C2029      H2035   1.082       .  S
O2030      C2031   1.335       .  A
C2031      C2032   1.391       .  A
C2032      H2036   1.082       .  S
C2037      C2042   1.379       .  A
C2037      C2038   1.406       .  A
C2037      O2043   1.316       .  A
C2038      C2039   1.403       .  A
C2038      H2049   1.083       .  S
C2039      C2048   1.368       .  A
C2039      C2040   1.378       .  A
C2040      C2041   1.409       .  A
C2040      O2046   1.318       .  A
C2041      C2042   1.406       .  A
C2041      H2050   1.083       .  S
C2042      C2045   1.372       .  A
O2043      C2044   1.333       .  A
C2044      C2045   1.393       .  A
C2045      H2051   1.082       .  S
O2046      C2047   1.334       .  A
C2047      C2048   1.391       .  A
C2048      H2052   1.083       .  S
C2053      C2058   1.381       .  A
C2053      C2054   1.397       .  A
C2053      O2059   1.312       .  A
C2054      C2055   1.395       .  A
C2054      H2065   1.083       .  S
C2055      C2064   1.355       .  A
C2055      C2056   1.381       .  A
C2056      C2057   1.405       .  A
C2056      O2062   1.319       .  A
C2057      C2058   1.404       .  A
C2057      H2066   1.083       .  S
C2058      C2061   1.364       .  A
O2059      C2060   1.327       .  A
C2060      C2061   1.392       .  A
C2061      H2067   1.083       .  S
O2062      C2063   1.330       .  A
C2063      C2064   1.384       .  A
C2064      H2068   1.083       .  S
C2069      C2074   1.382       .  A
C2069      C2070   1.400       .  A
C2069      O2075   1.317       .  A
C2070      C2071   1.400       .  A
C2070      H2081   1.083       .  S
C2071      C2080   1.358       .  A
C2071      C2072   1.381       .  A
C2072      C2073   1.402       .  A
C2072      O2078   1.318       .  A
C2073      C2074   1.402       .  A
C2073      H2082   1.083       .  S
C2074      C2077   1.359       .  A
O2075      C2076   1.328       .  A
C2076      C2077   1.388       .  A
C2077      H2083   1.083       .  S
O2078      C2079   1.330       .  A
C2079      C2080   1.390       .  A
C2080      H2084   1.083       .  S
C2085      C2090   1.381       .  A
C2085      C2086   1.404       .  A
C2085      O2091   1.319       .  A
C2086      C2087   1.404       .  A
C2086      H2097   1.083       .  S
C2087      C2096   1.364       .  A
C2087      C2088   1.381       .  A
C2088      C2089   1.401       .  A
C2088      O2094   1.316       .  A
C2089      C2090   1.399       .  A
C2089      H2098   1.083       .  S
C2090      C2093   1.359       .  A
O2091      C2092   1.330       .  A
C2092      C2093   1.386       .  A
O2094      C2095   1.329       .  A
C2095      C2096   1.392       .  A
C2096      H2100   1.083       .  S
C2101      C2106   1.382       .  A
C2101      C2102   1.396       .  A
C2101      O2107   1.318       .  A
C2102      C2103   1.399       .  A
C2102      H2113   1.083       .  S
C2103      C2112   1.347       .  A
C2103      C2104   1.377       .  A
C2104      C2105   1.400       .  A
C2104      O2110   1.320       .  A
C2105      C2106   1.403       .  A
C2105      H2114   1.083       .  S
C2106      C2109   1.353       .  A
O2107      C2108   1.327       .  A
C2108      C2109   1.392       .  A
C2109      H2115   1.083       .  S
O2110      C2111   1.331       .  A
C2111      C2112   1.396       .  A
C2112      H2116   1.077       .  S
C2117      C2122   1.380       .  A
C2117      C2118   1.400       .  A
C2117      O2123   1.319       .  A
C2119      C2128   1.355       .  A
C2120      C2121   1.394       .  A
C2121      C2122   1.395       .  A
C2121      H2130   1.083       .  S
C2122      C2125   1.345       .  A
O2123      C2124   1.330       .  A
C2124      C2125   1.391       .  A
C2125      H2131   1.082       .  S
O2126      C2127   1.327       .  A
C2127      C2128   1.391       .  A
C2128      H2132   1.082       .  S
C2133      C2138   1.383       .  A
C2133      O2139   1.315       .  A
C2134      C2135   1.394       .  A
C2134      H2145   1.082       .  S
C2135      C2144   1.344       .  A
C2135      C2136   1.380       .  A
C2136      C2137   1.403   1_565  A
C2136      O2142   1.321       .  A
C2137      H2146   1.082       .  S
C2138      C2141   1.352       .  A
O2139      C2140   1.325       .  A
C2140      C2141   1.389       .  A
C2141      H2147   1.083       .  S
O2142      C2143   1.331       .  A
C2143      C2144   1.387       .  A
C2144      H2148   1.078       .  S
C2149      C2154   1.380       .  A
C2149      C2150   1.401       .  A
C2149      O2155   1.312       .  A
C2150      C2151   1.399       .  A
C2150      H2161   1.081       .  S
C2151      C2160   1.362       .  A
C2151      C2152   1.381       .  A
C2152      C2153   1.401       .  A
C2152      O2158   1.312       .  A
C2153      C2154   1.398       .  A
C2153      H2162   1.081       .  S
C2154      C2157   1.360       .  A
O2155      C2156   1.329       .  A
C2156      C2157   1.390       .  A
C2157      H2163   1.082       .  S
O2158      C2159   1.329       .  A
C2159      C2160   1.388       .  A
C2160      H2164   1.082       .  S
C2165      C2170   1.380       .  A
C2165      C2166   1.402   1_655  A
C2165      O2171   1.319       .  A
C2166      H2177   1.083       .  S
C2167      C2176   1.357       .  A
C2167      C2168   1.382       .  A
C2168      O2174   1.316       .  A
C2169      C2170   1.401       .  A
C2169      H2178   1.083       .  S
C2170      C2173   1.355       .  A
O2171      C2172   1.331       .  A
C2172      C2173   1.392       .  A
C2173      H2179   1.082       .  S
O2174      C2175   1.327       .  A
C2175      C2176   1.391       .  A
C2176      H2180   1.083       .  S
C2181      C2186   1.379       .  A
C2181      C2182   1.402       .  A
C2181      O2187   1.313       .  A
C2182      H2193   1.081       .  S
C2183      C2192   1.360   1_545  A
C2183      C2184   1.381   1_545  A
C2184      O2190   1.315       .  A
C2185      C2186   1.398       .  A
C2185      H2194   1.082       .  S
C2186      C2189   1.359       .  A
O2187      C2188   1.330       .  A
C2188      C2189   1.391       .  A
C2189      H2195   1.081       .  S
O2190      C2191   1.330       .  A
C2191      C2192   1.387       .  A
C2192      H2196   1.082       .  S
C2197      C2202   1.379       .  A
C2197      C2198   1.406       .  A
C2197      O2203   1.316       .  A
C2198      C2199   1.403       .  A
C2198      H2209   1.083       .  S
C2199      C2208   1.368       .  A
C2199      C2200   1.379       .  A
C2200      C2201   1.405       .  A
C2200      O2206   1.315       .  A
C2201      C2202   1.402       .  A
C2201      H2210   1.083       .  S
C2202      C2205   1.366       .  A
O2203      C2204   1.332       .  A
C2204      C2205   1.390       .  A
C2205      H2211   1.083       .  S
O2206      C2207   1.332       .  A
C2207      C2208   1.391       .  A
C2208      H2212   1.083       .  S
C2213      C2218   1.379       .  A
C2213      O2219   1.319       .  A
C2214      C2215   1.404       .  A
C2214      H2225   1.085       .  S
C2215      C2224   1.368       .  A
C2215      C2216   1.379       .  A
C2216      C2217   1.406       .  A
C2216      O2222   1.318       .  A
C2217      H2226   1.085       .  S
C2218      C2221   1.365       .  A
O2219      C2220   1.334       .  A
C2220      C2221   1.389       .  A
C2221      H2227   1.084       .  S
O2222      C2223   1.333       .  A
C2223      C2224   1.391       .  A
C2224      H2228   1.083       .  S
C2229      C2234   1.380       .  A
C2229      C2230   1.407       .  A
C2229      O2235   1.326       .  A
C2230      H2241   1.081       .  S
C2231      C2240   1.361       .  A
C2231      C2232   1.380       .  A
C2232      C2233   1.407       .  A
C2232      O2238   1.324       .  A
C2233      H2242   1.081       .  S
C2234      C2237   1.363       .  A
O2235      C2236   1.332       .  A
C2236      C2237   1.395       .  A
C2237      H2243   1.082       .  S
O2238      C2239   1.332       .  A
C2239      C2240   1.393       .  A
C2240      H2244   1.082       .  S
