geometry optimzed in LAMMPS
_audit_creation_date              2020-11-30 
_audit_creation_method            'lammps2cif' 
_symmetry_space_group_name_H-M    'P1' 
_symmetry_Int_Tables_number       1 
_symmetry_cell_setting            triclinic 
loop_ 
_symmetry_equiv_pos_as_xyz 
  x,y,z 
_cell_length_a                    42.33224383 
_cell_length_b                    43.21531704415616 
_cell_length_c                    35.17275321227906 
_cell_angle_alpha                 90.06669636013694 
_cell_angle_beta                  90.02326666813794 
_cell_angle_gamma                 122.21248936305528 
loop_ 
_atom_site_label 
_atom_site_type_symbol 
_atom_site_fract_x 
_atom_site_fract_y 
_atom_site_fract_z 
_atom_site_charge 
O1          O  0.18968094  0.68596428  0.17639549    -0.81300
O2          O  0.24340396  0.84944895  0.22359527    -0.65900
O3          O  0.18875425  0.74889851  0.19360543    -1.12500
C4          C  0.21617397  0.79707595  0.06951371     1.05600
O5          O  0.21586274  0.86529888  0.18124878    -0.79200
O6          O  0.16045514  0.80682148  0.14097892    -0.66700
Ni7        Ni  0.20063416  0.71712164  0.21947244     1.34900
C8          C  0.14168220  0.77336484  0.13116692     0.84400
O9          O  0.20323701  0.78798114  0.26262855    -0.79700
O10         O  0.21161806  0.74173003  0.26776924    -0.90000
C11         C  0.23790866  0.87307703  0.20932136     0.83900
O12         O  0.25161261  0.74590737  0.20483425    -0.68200
O13         O  0.21049171  0.82068549  0.08425635    -0.87500
C14         C  0.27396906  0.77981397  0.21123001     0.84800
C15         C  0.20840757  0.76666023  0.28261128     1.06300
H16         H  0.25431468  0.82141284  0.15383239     0.38100
O17         O  0.22772787  0.80979942  0.15757792    -1.10100
O18         O  0.15627967  0.75419559  0.12851859    -0.66800
Ni19       Ni  0.20383739  0.76042959  0.14084079     1.26300
O20         O  0.26279079  0.80156859  0.21762633    -0.67000
O21         O  0.21956550  0.77428982  0.08925011    -0.79300
C22         C  0.18132200  0.68464947  0.14158556     0.84200
O23         O  0.18151245  0.71069338  0.12476534    -0.66500
Ni24       Ni  0.21297265  0.84029143  0.13433489     1.27400
Ni25       Ni  0.21597722  0.79905564  0.21006533     1.26100
H26         H  0.16231705  0.73898189  0.19623058     0.38700
O27         O  0.20407230  0.69407742  0.68116444    -0.81300
O28         O  0.25259243  0.85252713  0.71672736    -0.65900
O29         O  0.19210684  0.75063816  0.69721538    -1.12500
C30         C  0.21502098  0.78774068  0.56871964     1.05600
O31         O  0.22191354  0.86540542  0.67523320    -0.79200
O32         O  0.16490923  0.80805252  0.63519926    -0.66700
Ni33       Ni  0.19833702  0.71666784  0.72563948     1.34900
C34         C  0.14321294  0.77350552  0.63285632     0.84400
O35         O  0.21572837  0.79530952  0.76236413    -0.79700
O36         O  0.19277134  0.73574143  0.77288301    -0.90000
C37         C  0.24360688  0.87420369  0.70388864     0.83900
O38         O  0.25138287  0.74522419  0.73055059    -0.68200
O39         O  0.21510297  0.81563174  0.58102423    -0.87500
C40         C  0.27629999  0.77833070  0.72354041     0.84800
C41         C  0.20289852  0.76774816  0.78436357     1.06300
H42         H  0.25575458  0.81553112  0.64888426     0.38100
O43         O  0.22996155  0.80649589  0.65478254    -1.10100
O44         O  0.15471314  0.75169039  0.63462851    -0.66800
Ni45       Ni  0.20161917  0.75554532  0.64368023     1.26300
O46         O  0.26865087  0.80168216  0.71267716    -0.67000
O47         O  0.21228151  0.76273673  0.59036575    -0.79300
C48         C  0.18465811  0.68397693  0.65090767     0.84200
O49         O  0.17492214  0.70402394  0.63517952    -0.66500
Ni50       Ni  0.21802498  0.83805837  0.62957589     1.27400
Ni51       Ni  0.22304138  0.80134886  0.70842721     1.23700
H52         H  0.16667274  0.74381859  0.70150786     0.38700
O53         O  0.49425993  0.78014201  0.34199003    -0.81300
O54         O  0.62197040  0.75166965  0.38011375    -0.65900
O55         O  0.56760675  0.79696360  0.35696364    -1.12500
C56         C  0.58478126  0.77553330  0.22973952     1.05600
O57         O  0.66377482  0.77947955  0.33457837    -0.79200
O58         O  0.65621631  0.83133825  0.29869460    -0.66700
Ni59       Ni  0.52339680  0.78357229  0.38544517     1.34900
C60         C  0.64010446  0.84878602  0.29324222     0.84400
O61         O  0.59867080  0.78600539  0.42253668    -0.79700
O62         O  0.54652479  0.78573786  0.43321417    -0.90000
C63         C  0.65279424  0.76055687  0.36487970     0.83900
O64         O  0.50166935  0.73232434  0.38224688    -0.68200
O65         O  0.61574833  0.78145264  0.24232898    -0.87500
C66         C  0.51608886  0.71310385  0.38258335     0.84800
C67         C  0.57559493  0.78688192  0.44483868     1.06300
H68         H  0.57504999  0.73716547  0.31275827     0.38100
O69         O  0.59066638  0.76327664  0.31670645    -1.10100
O70         O  0.60474071  0.83288166  0.29225973    -0.66800
Ni71       Ni  0.56247793  0.78477726  0.30385901     1.26300
O72         O  0.55095034  0.72626702  0.37958020    -0.67000
O73         O  0.55885010  0.77220619  0.25111550    -0.79300
C74         C  0.50186772  0.79502730  0.30942574     0.84200
O75         O  0.53257885  0.80493233  0.29317806    -0.66500
Ni76       Ni  0.63687595  0.78050138  0.29048080     1.27400
Ni77       Ni  0.59453932  0.77412902  0.36976234     1.26100
H78         H  0.58446494  0.82301133  0.36009147     0.38700
O79         O  0.49816207  0.78045207  0.83642113    -0.81300
O80         O  0.61826084  0.74448067  0.87765797    -0.65900
O81         O  0.56937799  0.79542631  0.85756012    -1.12500
C82         C  0.59577381  0.78653756  0.72965433     1.05600
O83         O  0.66397307  0.77653675  0.83662815    -0.79200
O84         O  0.66276585  0.83281845  0.80473306    -0.66700
Ni85       Ni  0.52306533  0.78066050  0.88212515     1.34900
C86         C  0.64825274  0.85186749  0.80110303     0.84400
O87         O  0.59261167  0.77528833  0.92316896    -0.79700
O88         O  0.54266899  0.77978493  0.93100030    -0.90000
C89         C  0.64918382  0.75301083  0.86305970     0.83900
O90         O  0.50027016  0.72925167  0.87643778    -0.68200
O91         O  0.62515032  0.78953659  0.74332037    -0.87500
C92         C  0.51344375  0.70895259  0.87468612     0.84800
C93         C  0.56921583  0.77725264  0.94416342     1.06300
H94         H  0.57786841  0.73922915  0.80792846     0.38100
O95         O  0.59394337  0.76463579  0.81504283    -1.10100
O96         O  0.61314733  0.83756243  0.79839531    -0.66800
Ni97       Ni  0.56875789  0.78930520  0.80354351     1.26300
O98         O  0.54821395  0.72136452  0.87239504    -0.67000
O99         O  0.56874840  0.78186876  0.75003345    -0.79300
C100        C  0.51038652  0.80208012  0.80829237     0.84200
O101        O  0.54210363  0.81297294  0.79400173    -0.66500
Ni102      Ni  0.64173292  0.78268442  0.79179280     1.27400
Ni103      Ni  0.59330852  0.76948580  0.86909468     1.26100
H104        H  0.58651344  0.82075190  0.86398985     0.38700
O105        O  0.20182128  0.48935349  0.98755412    -0.81300
O106        O  0.24899856  0.37531920  0.94517113    -0.65900
O107        O  0.19765860  0.42277722  0.97326811    -1.12500
C108        C  0.22760040  0.41153261  0.09869753     1.05600
O109        O  0.22968440  0.33736532  0.99433198    -0.79200
O110        O  0.17403465  0.33869101  0.03168831    -0.66700
Ni111      Ni  0.20717663  0.46471862  0.94464668     1.34900
C112        C  0.15406756  0.35198886  0.03805788     0.84400
O113        O  0.20600942  0.39209184  0.90669713    -0.79700
O114        O  0.21141884  0.44548257  0.89675183    -0.90000
C115        C  0.24449462  0.34710599  0.96165069     0.83900
O116        O  0.25972831  0.49026038  0.95233958    -0.68200
O117        O  0.22410011  0.38232674  0.08600713    -0.87500
C118        C  0.28125374  0.47886638  0.94509639     0.84800
C119        C  0.20692867  0.41567063  0.88448661     1.06300
H120        H  0.26592144  0.42334999  0.01183987     0.38100
O121        O  0.23927517  0.40622045  0.01010563    -1.10100
O122        O  0.16787899  0.38636431  0.03899843    -0.66800
Ni123      Ni  0.21428862  0.43025827  0.02528297     1.26300
O124        O  0.26977112  0.44483267  0.94391102    -0.67000
O125        O  0.23107365  0.43663642  0.07694880    -0.79300
C126        C  0.19120143  0.48146078  0.02190117     0.84200
O127        O  0.18995024  0.45512795  0.03910157    -0.66500
Ni128      Ni  0.22689867  0.36275147  0.03792442     1.27400
Ni129      Ni  0.22358264  0.39954143  0.95805894     1.26100
H130        H  0.17114488  0.40492701  0.97194317     0.38700
O131        O  0.21399774  0.49371230  0.49121408    -0.81300
O132        O  0.26051813  0.38535573  0.45342177    -0.65900
O133        O  0.19948666  0.42432888  0.47058794    -1.12500
C134        C  0.20541659  0.39800038  0.59824154     1.05600
O135        O  0.22539576  0.33763807  0.49062204    -0.79200
O136        O  0.16375723  0.33442236  0.51857214    -0.66700
Ni137      Ni  0.20921350  0.46745956  0.44523802     1.34900
C138        C  0.14295164  0.34688891  0.52415124     0.84400
O139        O  0.22881341  0.40978776  0.40568856    -0.79700
O140        O  0.20550131  0.44540055  0.39694237    -0.90000
C141        C  0.25197443  0.35454570  0.46683838     0.83900
O142        O  0.26219470  0.49254315  0.44333095    -0.68200
O143        O  0.20233323  0.36923637  0.58406648    -0.87500
C144        C  0.28599315  0.48450666  0.45239306     0.84800
C145        C  0.21765292  0.42600862  0.38425672     1.06300
H146        H  0.25727902  0.41880179  0.52334583     0.38100
O147        O  0.23199093  0.40277391  0.51437059    -1.10100
O148        O  0.15602259  0.38083062  0.52908073    -0.66800
Ni149      Ni  0.20470540  0.42533600  0.52461986     1.26300
O150        O  0.27683622  0.45254246  0.46236195    -0.67000
O151        O  0.21134012  0.42514642  0.57825178    -0.79300
C152        C  0.19300011  0.48262583  0.52025579     0.84200
O153        O  0.17953033  0.45056747  0.53299021    -0.66500
Ni154      Ni  0.21394229  0.35571285  0.53569419     1.27400
Ni155      Ni  0.23057440  0.40577027  0.46027181     1.26100
H156        H  0.17434143  0.40539451  0.46377405     0.38700
O157        O  0.53435791  0.20944739  0.33325578    -0.81300
O158        O  0.41443076  0.24135733  0.37877739    -0.65900
O159        O  0.46263243  0.19056288  0.35508081    -1.12500
C160        C  0.43479192  0.20099392  0.22856387     1.05600
O161        O  0.36749710  0.20927282  0.33844044    -0.79200
O162        O  0.36934611  0.15231903  0.30535959    -0.66700
Ni163      Ni  0.50794008  0.20268998  0.37989959     1.34900
C164        C  0.38487456  0.13434263  0.29987912     0.84400
O165        O  0.44117075  0.20976036  0.42240179    -0.79700
O166        O  0.48574365  0.19693315  0.42892778    -0.90000
C167        C  0.38257844  0.23199626  0.36582854     0.83900
O168        O  0.53048031  0.25417124  0.38239846    -0.68200
O169        O  0.40482774  0.19589373  0.24333622    -0.87500
C170        C  0.51860629  0.27533916  0.37792952     0.84800
C171        C  0.46067439  0.20149062  0.44270325     1.06300
H172        H  0.45264291  0.24737746  0.30784661     0.38100
O173        O  0.43734976  0.22183278  0.31464864    -1.10100
O174        O  0.41999535  0.15009795  0.29540458    -0.66800
Ni175      Ni  0.46348871  0.19852629  0.30143429     1.26300
O176        O  0.48460124  0.26410305  0.37127048    -0.67000
O177        O  0.46289408  0.20723715  0.24822596    -0.79300
C178        C  0.52303602  0.18763682  0.30522601     0.84200
O179        O  0.49134892  0.17626369  0.29044317    -0.66500
Ni180      Ni  0.38885145  0.20253077  0.29262755     1.27400
Ni181      Ni  0.43919761  0.21637079  0.36846629     1.26100
H182        H  0.44499691  0.16501107  0.36039127     0.38700
O183        O  0.52648686  0.19193344  0.84288631    -0.81300
O184        O  0.40145188  0.22813680  0.87902490    -0.65900
O185        O  0.45715428  0.18457777  0.85448375    -1.12500
C186        C  0.44272233  0.20700079  0.72831785     1.05600
O187        O  0.36403943  0.20879335  0.82848754    -0.79200
O188        O  0.37046934  0.15267753  0.80097930    -0.66700
Ni189      Ni  0.50159407  0.20019425  0.88361121     1.34900
C190        C  0.38650048  0.13559937  0.79306823     0.84400
O191        O  0.42420528  0.19229151  0.91995733    -0.79700
O192        O  0.48291646  0.20862376  0.92998301    -0.90000
C193        C  0.37294481  0.22319570  0.86142434     0.83900
O194        O  0.52273087  0.24955491  0.86813289    -0.68200
O195        O  0.41001195  0.19603246  0.74027579    -0.87500
C196        C  0.50861568  0.26868539  0.87436434     0.84800
C197        C  0.45100856  0.20003502  0.94224789     1.06300
H198        H  0.45032028  0.24656440  0.81263392     0.38100
O199        O  0.43513741  0.22028698  0.81535657    -1.10100
O200        O  0.42175247  0.15200595  0.78831597    -0.66800
Ni201      Ni  0.46398292  0.19994569  0.80209612     1.26300
O202        O  0.47364980  0.25455578  0.87962365    -0.67000
O203        O  0.46986919  0.21618175  0.75065428    -0.79300
C204        C  0.52056710  0.18277004  0.80807496     0.84200
O205        O  0.49394076  0.18066030  0.78936024    -0.66500
Ni206      Ni  0.38985056  0.20235545  0.78695347     1.27400
Ni207      Ni  0.42967283  0.20672079  0.86778647     1.26100
H208        H  0.44102618  0.15833265  0.85649075     0.38700
O209        O  0.82491027  0.28961462  0.17080600    -0.81300
O210        O  0.77871076  0.13177099  0.21276896    -0.65900
O211        O  0.83727307  0.23308273  0.18787224    -1.12500
C212        C  0.81660437  0.19144936  0.06224840     1.05600
O213        O  0.81027167  0.11846503  0.17255141    -0.79200
O214        O  0.86812276  0.17820774  0.13648502    -0.66700
Ni215      Ni  0.83181638  0.26822606  0.21532515     1.34900
C216        C  0.88686381  0.21161336  0.12670386     0.84400
O217        O  0.81566420  0.19160067  0.25584511    -0.79700
O218        O  0.83887060  0.25150644  0.26304917    -0.90000
C219        C  0.78709242  0.10962619  0.19977241     0.83900
O220        O  0.77896805  0.23921985  0.22153686    -0.68200
O221        O  0.82151227  0.16721773  0.07677617    -0.87500
C222        C  0.75399589  0.20575938  0.21604046     0.84800
C223        C  0.82893114  0.22025897  0.27635380     1.06300
H224        H  0.77333879  0.16315181  0.14298663     0.38100
O225        O  0.79957225  0.17447029  0.14876522    -1.10100
O226        O  0.87233170  0.23072424  0.12349571    -0.66800
Ni227      Ni  0.82479810  0.22455499  0.13475531     1.26300
O228        O  0.76151861  0.18205947  0.20590251    -0.67000
O229        O  0.81175160  0.21329243  0.08217191    -0.79300
C230        C  0.84057094  0.29643318  0.13851934     0.84200
O231        O  0.84868287  0.27519845  0.12270919    -0.66500
Ni232      Ni  0.81602578  0.14523634  0.12621083     1.27400
Ni233      Ni  0.80746555  0.18277733  0.20210711     1.26100
H234        H  0.86305073  0.24047525  0.19100929     0.38700
O235        O  0.81957722  0.28480276  0.67535463    -0.81300
O236        O  0.77668135  0.12905373  0.71233679    -0.65900
O237        O  0.83527532  0.23037273  0.68953336    -1.12500
C238        C  0.81198659  0.19340947  0.56219027     1.05600
O239        O  0.80273598  0.11355986  0.66733792    -0.79200
O240        O  0.86088273  0.17318378  0.63191721    -0.66700
Ni241      Ni  0.83081454  0.26502253  0.71871283     1.34900
C242        C  0.88169343  0.20711742  0.62486907     0.84400
O243        O  0.81542527  0.18805718  0.75591731    -0.79700
O244        O  0.84177200  0.24846731  0.76468888    -0.90000
C245        C  0.78374157  0.10652663  0.69777501     0.83900
O246        O  0.77869774  0.23575285  0.72972024    -0.68200
O247        O  0.81367646  0.16669571  0.57506118    -0.87500
C248        C  0.75334024  0.20268265  0.72319419     0.84800
C249        C  0.83091139  0.21653212  0.77697566     1.06300
H250        H  0.76954687  0.16349505  0.64416804     0.38100
O251        O  0.79572461  0.17332451  0.64890497    -1.10100
O252        O  0.86952566  0.22848282  0.62467499    -0.66800
Ni253      Ni  0.82278493  0.22413831  0.63673070     1.26300
O254        O  0.75981300  0.17954554  0.70890115    -0.67000
O255        O  0.81004533  0.21591798  0.58395374    -0.79300
C256        C  0.83553358  0.29375392  0.64308489     0.84200
O257        O  0.84757036  0.27549236  0.62751466    -0.66500
Ni258      Ni  0.80843877  0.14269071  0.62297666     1.27400
Ni259      Ni  0.80536033  0.18007223  0.70230668     1.26100
H260        H  0.86098900  0.23737666  0.69215962     0.38700
O261        O  0.81094700  0.48707851  0.98923645    -0.81300
O262        O  0.76972716  0.60118603  0.94741402    -0.65900
O263        O  0.82425543  0.55640355  0.97015188    -1.12500
C264        C  0.80223554  0.57583846  0.09763645     1.05600
O265        O  0.80412965  0.64625035  0.98772786    -0.79200
O266        O  0.85605959  0.64532292  0.03221642    -0.66700
Ni267      Ni  0.81483774  0.51357653  0.94381117     1.34900
C268        C  0.87645340  0.63196324  0.03394782     0.84400
O269        O  0.80445242  0.57833627  0.90355355    -0.79700
O270        O  0.81858436  0.53554399  0.89533833    -0.90000
C271        C  0.78070209  0.63266127  0.96055845     0.83900
O272        O  0.76183103  0.48886768  0.94220778    -0.68200
O273        O  0.80198843  0.60309408  0.08412483    -0.87500
C274        C  0.73893781  0.49925124  0.94462190     0.84800
C275        C  0.81290150  0.55973611  0.88262038     1.06300
H276        H  0.76282267  0.56034250  0.01637562     0.38100
O277        O  0.78893336  0.57722190  0.01073589    -1.10100
O278        O  0.86338521  0.59788842  0.03134221    -0.66800
Ni279      Ni  0.81505509  0.55407079  0.02380500     1.26300
O280        O  0.74882235  0.53215597  0.95162259    -0.67000
O281        O  0.80519995  0.55308870  0.07718985    -0.79300
C282        C  0.82969310  0.49828048  0.01984143     0.84200
O283        O  0.83957051  0.52889544  0.03451311    -0.66500
Ni284      Ni  0.80303962  0.62258614  0.03466363     1.27400
Ni285      Ni  0.79629394  0.57784402  0.95714196     1.26100
H286        H  0.85015965  0.57470108  0.96546908     0.38700
O287        O  0.83631109  0.50224812  0.48226560    -0.81300
O288        O  0.77775754  0.60866041  0.44714282    -0.65900
O289        O  0.83452488  0.56565071  0.47098867    -1.12500
C290        C  0.80285685  0.57387734  0.59750777     1.05600
O291        O  0.80380820  0.64986148  0.49305102    -0.79200
O292        O  0.85762971  0.64789565  0.53329042    -0.66700
Ni293      Ni  0.82534030  0.52427510  0.44142402     1.34900
C294        C  0.87792935  0.63498491  0.53963965     0.84400
O295        O  0.81933918  0.59316608  0.40498129    -0.79700
O296        O  0.81420563  0.53999843  0.39503540    -0.90000
C297        C  0.78486087  0.63830790  0.46251399     0.83900
O298        O  0.77416493  0.49723172  0.45516053    -0.68200
O299        O  0.80540309  0.60287240  0.58523802    -0.87500
C300        C  0.75031550  0.50625526  0.45052121     0.84800
C301        C  0.81535389  0.56817199  0.38286057     1.06300
H302        H  0.76665826  0.56336056  0.51296185     0.38100
O303        O  0.79312796  0.58078057  0.51006219    -1.10100
O304        O  0.86538376  0.60085785  0.53823785    -0.66800
Ni305      Ni  0.81877108  0.55715940  0.52367413     1.26300
O306        O  0.76000689  0.53966765  0.44701350    -0.67000
O307        O  0.80267712  0.55037005  0.57551893    -0.79300
C308        C  0.84346280  0.50675535  0.51758025     0.84200
O309        O  0.84230587  0.53112819  0.53641916    -0.66500
Ni310      Ni  0.80468946  0.62390028  0.53736091     1.27400
Ni311      Ni  0.80579063  0.58666195  0.45758666     1.26100
H312        H  0.86076280  0.58433207  0.46919676     0.38700
C313        C  0.83764108  0.56399076  0.77823220    -0.11700
C314        C  0.80815855  0.56481151  0.76121760     0.14800
C315        C  0.78165951  0.56616632  0.78432155     0.01700
C316        C  0.78502781  0.56623326  0.82384310    -0.16100
C317        C  0.81415316  0.56483721  0.84104373    -0.10900
C318        C  0.84115423  0.56437842  0.81782111     0.08400
C319        C  0.80731251  0.56689539  0.71940460     0.09400
S320        S  0.74302675  0.56798326  0.76537497    -0.25200
H321        H  0.76384094  0.56592100  0.84132120     0.19700
S322        S  0.88129948  0.56549532  0.83688246    -0.30900
H323        H  0.85849017  0.56383593  0.76049744     0.10000
C324        C  0.82195240  0.60073621  0.70117062     0.03200
C325        C  0.81953031  0.60174848  0.66161604    -0.13200
C326        C  0.80263261  0.56956116  0.63948430    -0.08900
C327        C  0.78809051  0.53552099  0.65813444     0.06700
C328        C  0.79106804  0.53467413  0.69778652    -0.14000
S329        S  0.84417294  0.64275361  0.72832770    -0.30900
H330        H  0.83144264  0.62804442  0.64784304     0.10900
S331        S  0.76408826  0.49223006  0.63362479    -0.28000
H332        H  0.77968701  0.50862592  0.71206107     0.08200
H333        H  0.88516218  0.58669833  0.86900320     0.26600
H334        H  0.85437012  0.66676398  0.69730514     0.21400
H335        H  0.74386497  0.50166193  0.60969338     0.26700
H336        H  0.74000059  0.55075663  0.73050430     0.15500
C337        C  0.78169087  0.58084062  0.20173186    -0.11700
C338        C  0.80807519  0.57550921  0.21942887     0.14800
C339        C  0.83032717  0.56725942  0.19699908     0.01700
C340        C  0.82630048  0.56535028  0.15737701    -0.16100
C341        C  0.80074873  0.57188928  0.13947852    -0.10900
C342        C  0.77753375  0.57877715  0.16216323     0.08400
C343        C  0.80909721  0.57509451  0.26143269     0.09400
S344        S  0.86419254  0.55875058  0.21716295    -0.25200
H345        H  0.84432510  0.56016408  0.14031507     0.19700
S346        S  0.74115678  0.58378771  0.14246786    -0.30900
H347        H  0.76371311  0.58595471  0.21897060     0.10000
C348        C  0.83179456  0.60706169  0.28299954     0.03200
C349        C  0.83259772  0.60463305  0.32285916    -0.13200
C350        C  0.81099115  0.57078683  0.34137864    -0.08900
C351        C  0.78679269  0.53924702  0.31943674     0.06700
C352        C  0.78659867  0.54168512  0.27990397    -0.14000
S353        S  0.86064161  0.65051864  0.25954244    -0.30900
H354        H  0.85084928  0.62886387  0.33950795     0.10900
S355        S  0.75426385  0.49526754  0.34011984    -0.28000
H356        H  0.76847245  0.51731355  0.26330986     0.08200
H357        H  0.73304901  0.55981275  0.11169723     0.26600
H358        H  0.87911910  0.67077527  0.29237739     0.21400
H359        H  0.74392860  0.50998468  0.36972249     0.26700
H360        H  0.87301850  0.58133996  0.24921587     0.15500
C361        C  0.81513975  0.36428911  0.60765839    -0.11700
C362        C  0.84927282  0.39003548  0.59090034     0.14800
C363        C  0.87849831  0.38334653  0.59006818     0.01700
C364        C  0.87285086  0.35101929  0.60590806    -0.16100
C365        C  0.83883466  0.32546030  0.62321846    -0.10900
C366        C  0.80943547  0.33199776  0.62336828     0.08400
C367        C  0.85199567  0.42179632  0.57168009     0.09400
S368        S  0.92347077  0.41478477  0.56919745    -0.25200
H369        H  0.89555710  0.34629777  0.60571808     0.19700
S370        S  0.76341433  0.29947644  0.64140290    -0.30900
H371        H  0.79236919  0.36892748  0.60746875     0.10000
C372        C  0.84615479  0.42126802  0.53232793     0.03200
C373        C  0.84589021  0.45043796  0.51540909    -0.13200
C374        C  0.85093054  0.48040107  0.53693495    -0.08900
C375        C  0.85858729  0.48139680  0.57642206     0.06700
C376        C  0.85834376  0.45186027  0.59330231    -0.14000
S377        S  0.83707889  0.38242503  0.50392336    -0.30900
H378        H  0.84027028  0.44898853  0.48524902     0.10900
S379        S  0.86881826  0.51904505  0.60713823    -0.28000
H380        H  0.86313565  0.45226293  0.62362117     0.08200
H381        H  0.76330753  0.26829774  0.62957122     0.26600
H382        H  0.83082125  0.39448191  0.46924204     0.21400
H383        H  0.89437150  0.54582782  0.58164983     0.26700
H384        H  0.92257038  0.44659565  0.57383310     0.15500
C385        C  0.83555807  0.43699985  0.09233217    -0.11700
C386        C  0.85424639  0.42388472  0.07125962     0.14800
C387        C  0.86657093  0.43712754  0.03408281     0.01700
C388        C  0.85834496  0.46162760  0.01822150    -0.16100
C389        C  0.83896643  0.47404855  0.03900143    -0.10900
C390        C  0.82779263  0.46191707  0.07663174     0.08400
C391        C  0.85550479  0.39278154  0.08676229     0.09400
S392        S  0.89247149  0.42353124  0.00534293    -0.25200
H393        H  0.86718686  0.47116378  0.98938421     0.19700
S394        S  0.80128602  0.47503245  0.10500347    -0.30900
H395        H  0.82526663  0.42631839  0.12054924     0.10000
C396        C  0.87225480  0.39488702  0.12210127     0.03200
C397        C  0.86773020  0.36303153  0.13796789    -0.13200
C398        C  0.84767552  0.32943192  0.11870151    -0.08900
C399        C  0.83264327  0.32786680  0.08247576     0.06700
C400        C  0.83653793  0.35942719  0.06702399    -0.14000
S401        S  0.89954011  0.43804088  0.14679534    -0.30900
H402        H  0.87947813  0.36411579  0.16566295     0.10900
S403        S  0.80622249  0.28618068  0.05559156    -0.28000
H404        H  0.82333692  0.35764878  0.04000581     0.08200
H405        H  0.78009618  0.47589159  0.07468471     0.26600
H406        H  0.91198089  0.42525285  0.17640605     0.21400
H407        H  0.78707894  0.26389264  0.08702332     0.26700
H408        H  0.90892485  0.41623008  0.03594515     0.15500
C409        C  0.86064987  0.23439822  0.88106781    -0.11700
C410        C  0.83006215  0.20382642  0.89840432     0.14800
C411        C  0.80171402  0.17628338  0.87529311     0.01700
C412        C  0.80346857  0.18083443  0.83587815    -0.16100
C413        C  0.83363457  0.21166613  0.81835726    -0.10900
C414        C  0.86312818  0.23822853  0.84139995     0.08400
C415        C  0.82758712  0.20190651  0.94052684     0.09400
S416        S  0.76235296  0.13482833  0.89430791    -0.25200
H417        H  0.78035163  0.16047515  0.81880329     0.19700
S418        S  0.90488525  0.27710677  0.82205830    -0.30900
H419        H  0.88276970  0.25542994  0.89861216     0.10000
C420        C  0.85294632  0.19792414  0.96267105     0.03200
C421        C  0.84851918  0.19469483  0.00225006    -0.13200
C422        C  0.81918699  0.19520915  0.02036932    -0.08900
C423        C  0.79366664  0.19896540  0.99806680     0.06700
C424        C  0.79851786  0.20287948  0.95856850    -0.14000
S425        S  0.89001850  0.19536774  0.94055638    -0.30900
H426        H  0.86800230  0.19162704  0.01927966     0.10900
S427        S  0.75304759  0.19645970  0.01770735    -0.28000
H428        H  0.77878936  0.20561133  0.94154784     0.08200
H429        H  0.90544811  0.25886428  0.78914266     0.26600
H430        H  0.90792074  0.19552582  0.97433507     0.21400
H431        H  0.74703808  0.17153387  0.04671659     0.26700
H432        H  0.78151309  0.13231107  0.92563470     0.15500
C433        C  0.85446687  0.24160187  0.38121344    -0.11700
C434        C  0.82477773  0.21014513  0.39818031     0.14800
C435        C  0.79756929  0.18175138  0.37491320     0.01700
C436        C  0.80086169  0.18523838  0.33540993    -0.16100
C437        C  0.83045558  0.21665797  0.31813356    -0.10900
C438        C  0.85778632  0.24509396  0.34157369     0.08400
C439        C  0.82322420  0.20718449  0.44012862     0.09400
S440        S  0.75741485  0.14077722  0.39375933    -0.25200
H441        H  0.77891807  0.16395773  0.31802392     0.19700
S442        S  0.89785646  0.28614542  0.32292227    -0.30900
H443        H  0.87551476  0.26334854  0.39902151     0.10000
C444        C  0.83039819  0.18285662  0.45887222     0.03200
C445        C  0.82593117  0.17881362  0.49833192    -0.13200
C446        C  0.81441961  0.19861649  0.52003115    -0.08900
C447        C  0.80788439  0.22359813  0.50081421     0.06700
C448        C  0.81279236  0.22782056  0.46131270    -0.14000
S449        S  0.84606736  0.15748074  0.43259022    -0.30900
H450        H  0.83204115  0.16030082  0.51231200     0.10900
S451        S  0.79226513  0.25020298  0.52422601    -0.28000
H452        H  0.80724677  0.24652406  0.44672502     0.08200
H453        H  0.90265297  0.26874655  0.29162359     0.26600
H454        H  0.84674336  0.13709379  0.46337640     0.21400
H455        H  0.76317459  0.21998442  0.54372721     0.26700
H456        H  0.75405380  0.15675882  0.42709231     0.15500
C457        C  0.67062041  0.19134209  0.77748374    -0.11700
C458        C  0.64167983  0.17315920  0.75088959     0.14800
C459        C  0.64926517  0.16308384  0.71538232     0.01700
C460        C  0.68569110  0.17203725  0.70718375    -0.16100
C461        C  0.71469359  0.19079526  0.73375977    -0.10900
C462        C  0.70660823  0.19969306  0.76965050     0.08400
C463        C  0.60524060  0.16840497  0.76067919     0.09400
S464        S  0.61398027  0.13931795  0.67937370    -0.25200
H465        H  0.69161207  0.16503683  0.67962164     0.19700
S466        S  0.74076890  0.22119640  0.80708040    -0.30900
H467        H  0.66514132  0.19940652  0.80467710     0.10000
C468        C  0.58562827  0.14915738  0.79362750     0.03200
C469        C  0.55684569  0.15298213  0.80753250    -0.13200
C470        C  0.54687731  0.17529526  0.78892719    -0.08900
C471        C  0.56487122  0.19254216  0.75448597     0.06700
C472        C  0.59365045  0.18873037  0.74066774    -0.14000
S473        S  0.59782054  0.12030938  0.81838923    -0.30900
H474        H  0.54259964  0.13927610  0.83354890     0.10900
S475        S  0.55499257  0.22252720  0.72876765    -0.28000
H476        H  0.60890722  0.20387837  0.71559332     0.08200
H477        H  0.75882413  0.20270706  0.79841922     0.26600
H478        H  0.57393503  0.11217957  0.84965957     0.21400
H479        H  0.55219532  0.23993233  0.76124524     0.26700
H480        H  0.58358009  0.12172787  0.70452565     0.15500
C481        C  0.59461210  0.36368225  0.86600985    -0.11700
C482        C  0.59360465  0.37861518  0.90109979     0.14800
C483        C  0.56102740  0.35988964  0.92357981     0.01700
C484        C  0.53194640  0.32495812  0.91256779    -0.16100
C485        C  0.53459266  0.30847979  0.87931709    -0.10900
C486        C  0.56530160  0.32881468  0.85479948     0.08400
C487        C  0.62873006  0.41069215  0.91573835     0.09400
S488        S  0.55619373  0.37801774  0.96789003    -0.25200
H489        H  0.50822210  0.30963584  0.93133342     0.19700
S490        S  0.56749519  0.31002732  0.80965293    -0.30900
H491        H  0.61935775  0.37848322  0.84850511     0.10000
C492        C  0.65005858  0.40630441  0.94353834     0.03200
C493        C  0.68479246  0.43647411  0.95447226    -0.13200
C494        C  0.69906684  0.47103030  0.93797420    -0.08900
C495        C  0.67717737  0.47548736  0.91071758     0.06700
C496        C  0.64244920  0.44527400  0.89971435    -0.14000
S497        S  0.63449481  0.36164502  0.96288202    -0.30900
H498        H  0.70177699  0.43284110  0.97479578     0.10900
S499        S  0.69379693  0.51788619  0.88600926    -0.28000
H500        H  0.62636944  0.44852428  0.87788279     0.08200
H501        H  0.60109561  0.34095756  0.79714710     0.26600
H502        H  0.66458358  0.37285379  0.98800794     0.21400
H503        H  0.69936696  0.53788529  0.91956940     0.26700
H504        H  0.58093301  0.41506475  0.95876946     0.15500
C505        C  0.60309858  0.17297531  0.29425566    -0.11700
C506        C  0.60688719  0.17387419  0.25466537     0.14800
C507        C  0.57932461  0.17353863  0.23160373     0.01700
C508        C  0.55072785  0.17589672  0.24870283    -0.16100
C509        C  0.54878416  0.17804338  0.28841323    -0.10900
C510        C  0.57422202  0.17453835  0.31133033     0.08400
C511        C  0.64239797  0.18001547  0.23928943     0.09400
S512        S  0.58021580  0.17207076  0.18038341    -0.25200
H513        H  0.53099041  0.17782584  0.23082262     0.19700
S514        S  0.57182534  0.17244436  0.36257106    -0.30900
H515        H  0.62372218  0.17248782  0.31209501     0.10000
C516        C  0.67011824  0.21465386  0.22543919     0.03200
C517        C  0.70548549  0.22141018  0.21643540    -0.13200
C518        C  0.71453080  0.19476617  0.22211281    -0.08900
C519        C  0.68647054  0.15991437  0.23594061     0.06700
C520        C  0.65070106  0.15283068  0.24377496    -0.14000
S521        S  0.66163011  0.25139979  0.22228316    -0.30900
H522        H  0.72671027  0.24819501  0.20609986     0.10900
S523        S  0.69514895  0.12449061  0.24762307    -0.28000
H524        H  0.62970603  0.12652849  0.25544500     0.08200
H525        H  0.53261563  0.15348621  0.36429175     0.26600
H526        H  0.69571826  0.27717682  0.20508458     0.21400
H527        H  0.72875603  0.14815671  0.26697823     0.26700
H528        H  0.60194215  0.15641287  0.17781657     0.15500
C529        C  0.64663950  0.44993503  0.42286654    -0.11700
C530        C  0.63971136  0.41443853  0.42536279     0.14800
C531        C  0.66728759  0.40943796  0.44123123     0.01700
C532        C  0.70195177  0.43980213  0.45115667    -0.16100
C533        C  0.71030451  0.47580200  0.44643970    -0.10900
C534        C  0.68119401  0.48054719  0.43394958     0.08400
C535        C  0.60569790  0.38321095  0.40775359     0.09400
S536        S  0.66061951  0.36489747  0.44801855    -0.25200
H537        H  0.72297092  0.43493354  0.46172143     0.19700
S538        S  0.68624468  0.52450934  0.43006267    -0.30900
H539        H  0.62535900  0.45390458  0.41119142     0.10000
C540        C  0.56973192  0.36847423  0.42335069     0.03200
C541        C  0.54014964  0.33438874  0.41023807    -0.13200
C542        C  0.54616815  0.31484487  0.38225290    -0.08900
C543        C  0.58134013  0.33142589  0.36431197     0.06700
C544        C  0.61053010  0.36538092  0.37706874    -0.14000
S545        S  0.56224106  0.39118407  0.46219090    -0.30900
H546        H  0.51312976  0.32158621  0.42393385     0.10900
S547        S  0.59129729  0.30968763  0.32641284    -0.28000
H548        H  0.63793889  0.37707738  0.36441987     0.08200
H549        H  0.70110215  0.53553065  0.46692675     0.26600
H550        H  0.52363398  0.36586047  0.46595784     0.21400
H551        H  0.55445214  0.28868821  0.31267889     0.26700
H552        H  0.62193534  0.34630380  0.45450387     0.15500
C553        C  0.46486841  0.18123920  0.54759225    -0.11700
C554        C  0.45227571  0.20187454  0.56500892     0.14800
C555        C  0.44015792  0.22040622  0.54206770     0.01700
C556        C  0.44226600  0.21901848  0.50239909    -0.16100
C557        C  0.45530862  0.19867814  0.48470536    -0.10900
C558        C  0.46563960  0.17864170  0.50799805     0.08400
C559        C  0.45126201  0.20271813  0.60711041     0.09400
S560        S  0.42188679  0.24641011  0.56155346    -0.25200
H561        H  0.43410821  0.23446267  0.48526737     0.19700
S562        S  0.47854666  0.14796261  0.48947522    -0.30900
H563        H  0.47342440  0.16633536  0.56511636     0.10000
C564        C  0.42500976  0.17157552  0.62784192     0.03200
C565        C  0.42354846  0.17381406  0.66745101    -0.13200
C566        C  0.44788677  0.20645650  0.68693960    -0.08900
C567        C  0.47476899  0.23745678  0.66627484     0.06700
C568        C  0.47632357  0.23517842  0.62659765    -0.14000
S569        S  0.39220236  0.12936935  0.60378862    -0.30900
H570        H  0.40301227  0.15010649  0.68342698     0.10900
S571        S  0.50646409  0.28096378  0.68850224    -0.28000
H572        H  0.49657497  0.25909956  0.61066735     0.08200
H573        H  0.45145746  0.13403355  0.46045225     0.26600
H574        H  0.37470053  0.10858168  0.63657786     0.21400
H575        H  0.48179148  0.27776992  0.71721146     0.26700
H576        H  0.40651294  0.22534277  0.59460574     0.15500
C577        C  0.40794671  0.17487633  0.12485628    -0.11700
C578        C  0.44036397  0.20174111  0.10628417     0.14800
C579        C  0.47124076  0.22794568  0.12810927     0.01700
C580        C  0.46917731  0.22634023  0.16788800    -0.16100
C581        C  0.43663617  0.19958400  0.18657785    -0.10900
C582        C  0.40591818  0.17316484  0.16458778     0.08400
C583        C  0.44198501  0.20008819  0.06430233     0.09400
S584        S  0.51399731  0.26409132  0.10698821    -0.25200
H585        H  0.49283075  0.24677903  0.18437758     0.19700
S586        S  0.36428473  0.13523851  0.18539477    -0.30900
H587        H  0.38449951  0.15429990  0.10823301     0.10000
C588        C  0.46279865  0.18740399  0.04654725     0.03200
C589        C  0.46468148  0.18730284  0.00677642    -0.13200
C590        C  0.44610174  0.19953439  0.98408745    -0.08900
C591        C  0.42499966  0.21202047  0.00212649     0.06700
C592        C  0.42267460  0.21157135  0.04191912    -0.14000
S593        S  0.48665058  0.17093253  0.07458901    -0.30900
H594        H  0.48074970  0.17757368  0.99320295     0.10900
S595        S  0.40271847  0.23126322  0.97639772    -0.28000
H596        H  0.40679242  0.22148393  0.05562385     0.08200
H597        H  0.38321660  0.12989009  0.21499581     0.26600
H598        H  0.50107335  0.16127779  0.04396582     0.21400
H599        H  0.43297353  0.25168727  0.95155694     0.26700
H600        H  0.49805514  0.26658861  0.07298697     0.15500
C601        C  0.03996811  0.30861738  0.53946642    -0.11700
C602        C  0.03067847  0.27871937  0.56303371     0.14800
C603        C  0.05666328  0.26800298  0.56767759     0.01700
C604        C  0.09179269  0.28849692  0.55054944    -0.16100
C605        C  0.10245724  0.32060434  0.53016972    -0.10900
C606        C  0.07545838  0.32967373  0.52317482     0.08400
C607        C  0.99376743  0.25944110  0.58220943     0.09400
S608        S  0.04805232  0.23041724  0.59760776    -0.25200
H609        H  0.11212298  0.28113966  0.55631577     0.19700
S610        S  0.08454233  0.36764801  0.49378203    -0.30900
H611        H  0.01962505  0.31611392  0.53446367     0.10000
C612        C  0.98362387  0.27779796  0.60790886     0.03200
C613        C  0.94751695  0.25934625  0.62329422    -0.13200
C614        C  0.92123757  0.22268250  0.61398675    -0.08900
C615        C  0.93219101  0.20393320  0.58952498     0.06700
C616        C  0.96798682  0.22259570  0.57362719    -0.14000
S617        S  0.01665862  0.32469549  0.62148891    -0.30900
H618        H  0.93943538  0.27376620  0.64216991     0.10900
S619        S  0.90089376  0.15732690  0.57455810    -0.28000
H620        H  0.97559324  0.20846446  0.55373955     0.08200
H621        H  0.10848359  0.36417269  0.46894922     0.26600
H622        H  0.99074480  0.33102018  0.63904171     0.21400
H623        H  0.89585413  0.14357979  0.61179820     0.26700
H624        H  0.02728786  0.23569797  0.62514595     0.15500
C625        C  0.30671713  0.24841487  0.39871851    -0.11700
C626        C  0.32826503  0.28524567  0.40984879     0.14800
C627        C  0.36758793  0.30357018  0.40871352     0.01700
C628        C  0.38431266  0.28526627  0.39486238    -0.16100
C629        C  0.36283570  0.24857645  0.38286514    -0.10900
C630        C  0.32347142  0.22978788  0.38578423     0.08400
C631        C  0.30886314  0.30329288  0.42366930     0.09400
S632        S  0.39805774  0.35026826  0.42431468    -0.25200
H633        H  0.41449893  0.30004586  0.39305906     0.19700
S634        S  0.29311244  0.18180061  0.37510857    -0.30900
H635        H  0.27654828  0.23394676  0.40052789     0.10000
C636        C  0.30743283  0.33001554  0.40212658     0.03200
C637        C  0.28903179  0.34650272  0.41692963    -0.13200
C638        C  0.27200824  0.33694515  0.45298868    -0.08900
C639        C  0.27451542  0.31069071  0.47478490     0.06700
C640        C  0.29206614  0.29372406  0.45955147    -0.14000
S641        S  0.32835803  0.34256995  0.35547689    -0.30900
H642        H  0.28752991  0.36662504  0.40010376     0.10900
S643        S  0.25815944  0.29903909  0.52308641    -0.28000
H644        H  0.29375405  0.27365259  0.47638506     0.08200
H645        H  0.31740717  0.17180565  0.38968831     0.26600
H646        H  0.31757856  0.36743882  0.34683919     0.21400
H647        H  0.27241984  0.33546929  0.53422332     0.26700
H648        H  0.37379509  0.35017168  0.45162603     0.15500
C649        C  0.17260798  0.37282360  0.70054978    -0.11700
C650        C  0.20141979  0.40303718  0.72008899     0.14800
C651        C  0.23097494  0.43192898  0.69925892     0.01700
C652        C  0.23069064  0.43029456  0.65949499    -0.16100
C653        C  0.20220200  0.39982293  0.63991203    -0.10900
C654        C  0.17253537  0.37103152  0.66078784     0.08400
C655        C  0.19965347  0.40407415  0.76209970     0.09400
S656        S  0.27025088  0.47120040  0.72172062    -0.25200
H657        H  0.25366548  0.45237114  0.64375839     0.19700
S658        S  0.13307365  0.33211946  0.63830480    -0.30900
H659        H  0.14969891  0.35078582  0.71638822     0.10000
C660        C  0.19141593  0.42778985  0.78065043     0.03200
C661        C  0.19315748  0.43014741  0.82043190    -0.13200
C662        C  0.20324905  0.40945861  0.84248444    -0.08900
C663        C  0.21045634  0.38484310  0.82344894     0.06700
C664        C  0.20802573  0.38212518  0.78370112    -0.14000
S665        S  0.17852286  0.45497134  0.75360708    -0.30900
H666        H  0.18680224  0.44852460  0.83438586     0.10900
S667        S  0.22488863  0.35755266  0.84739766    -0.28000
H668        H  0.21432977  0.36385395  0.76930664     0.08200
H669        H  0.13171510  0.35218460  0.60760276     0.26600
H670        H  0.17649019  0.47453672  0.78450008     0.21400
H671        H  0.25362889  0.38728874  0.86774075     0.26700
H672        H  0.27034894  0.45309539  0.75485085     0.15500
C673        C  0.20230498  0.38835484  0.20293059    -0.11700
C674        C  0.22447837  0.42250783  0.22020690     0.14800
C675        C  0.24750920  0.45355103  0.19749096     0.01700
C676        C  0.24818359  0.44950223  0.15793499    -0.16100
C677        C  0.22595162  0.41512978  0.14050050    -0.10900
C678        C  0.20229938  0.38436060  0.16360654     0.08400
C679        C  0.22292577  0.42414874  0.26207110     0.09400
S680        S  0.27688608  0.49877948  0.21720342    -0.25200
H681        H  0.26633384  0.47328999  0.14070906     0.19700
S682        S  0.16971457  0.33948340  0.14482445    -0.30900
H683        H  0.18429646  0.36460592  0.22031146     0.10000
C684        C  0.19327091  0.42400227  0.28033136     0.03200
C685        C  0.19178492  0.42366550  0.32016451    -0.13200
C686        C  0.21935163  0.42338991  0.34229645    -0.08900
C687        C  0.24916969  0.42370923  0.32358838     0.06700
C688        C  0.25030277  0.42357343  0.28381771    -0.14000
S689        S  0.15774538  0.42495479  0.25281126    -0.30900
H690        H  0.16911150  0.42382961  0.33418483     0.10900
S691        S  0.28788606  0.42673680  0.34847398    -0.28000
H692        H  0.27304652  0.42360094  0.26963817     0.08200
H693        H  0.15609616  0.35301275  0.11735055     0.26600
H694        H  0.13540942  0.42247372  0.28369898     0.21400
H695        H  0.29246058  0.45439018  0.37329654     0.26700
H696        H  0.25488267  0.49350557  0.24935621     0.15500
C697        C  0.98950812  0.24215601  0.11891278    -0.11700
C698        C  0.99904745  0.26182109  0.08464727     0.14800
C699        C  0.97131600  0.26341314  0.06414537     0.01700
C700        C  0.93549434  0.24733809  0.07929033    -0.16100
C701        C  0.92596548  0.22849751  0.11406928    -0.10900
C702        C  0.95324281  0.22547902  0.13386615     0.08400
C703        C  0.03876755  0.28429588  0.07324838     0.09400
S704        S  0.98008254  0.28628291  0.01891923    -0.25200
H705        H  0.91457045  0.24910516  0.06336004     0.19700
S706        S  0.94422133  0.20280678  0.17912855    -0.30900
H707        H  0.01084052  0.24114690  0.13487624     0.10000
C708        C  0.05919038  0.32237642  0.07883336     0.03200
C709        C  0.09603702  0.34342549  0.06592190    -0.13200
C710        C  0.11361298  0.32745216  0.04764240    -0.08900
C711        C  0.09275187  0.28893102  0.04219009     0.06700
C712        C  0.05582386  0.26787538  0.05541037    -0.14000
S713        S  0.03852789  0.34418243  0.10331838    -0.30900
H714        H  0.11146736  0.37260748  0.07101977     0.10900
S715        S  0.11075748  0.26482691  0.01784220    -0.28000
H716        H  0.03990153  0.23854891  0.05089477     0.08200
H717        H  0.91877534  0.21204323  0.19185557     0.26600
H718        H  0.07020374  0.37995689  0.10290629     0.21400
H719        H  0.12626115  0.29013246  0.98780825     0.26700
H720        H  0.00837962  0.28064522  0.00722045     0.15500
C721        C  0.29450441  0.23972407  0.88201013    -0.11700
C722        C  0.31259660  0.26977971  0.90673075     0.14800
C723        C  0.34865141  0.28117985  0.92017747     0.01700
C724        C  0.36731654  0.26514398  0.90543333    -0.16100
C725        C  0.35003844  0.23610171  0.87921241    -0.10900
C726        C  0.31232949  0.22216424  0.86898648     0.08400
C727        C  0.29342929  0.28892375  0.91765774     0.09400
S728        S  0.37231532  0.31596757  0.95615559    -0.25200
H729        H  0.39588183  0.27595200  0.91420139     0.19700
S730        S  0.28487659  0.18155134  0.84055516    -0.30900
H731        H  0.26622099  0.22984695  0.87281457     0.10000
C732        C  0.30678895  0.32510043  0.90597008     0.03200
C733        C  0.28917685  0.34292567  0.91912539    -0.13200
C734        C  0.25798972  0.32516020  0.94330864    -0.08900
C735        C  0.24302669  0.28783096  0.95241142     0.06700
C736        C  0.26118269  0.27046466  0.94000498    -0.14000
S737        S  0.34628200  0.34861503  0.87427045    -0.30900
H738        H  0.30058913  0.37124684  0.91159736     0.10900
S739        S  0.20045904  0.26033573  0.97898048    -0.28000
H740        H  0.25016659  0.24228604  0.94800720     0.08200
H741        H  0.30017838  0.16264021  0.85688215     0.26600
H742        H  0.34514444  0.38033454  0.86964435     0.21400
H743        H  0.18216919  0.27632880  0.96258266     0.26700
H744        H  0.33982573  0.30901668  0.97490124     0.15500
C745        C  0.68240793  0.95204485  0.78610754    -0.11700
C746        C  0.71654539  0.96434850  0.76793846     0.14800
C747        C  0.73085213  0.94142327  0.76667814     0.01700
C748        C  0.70900391  0.90552045  0.78011785    -0.16100
C749        C  0.67339724  0.89206986  0.79588653    -0.10900
C750        C  0.66111453  0.91657597  0.80074056     0.08400
C751        C  0.73564241  0.00065999  0.74948128     0.09400
S752        S  0.77606489  0.95585666  0.74705383    -0.25200
H753        H  0.71934421  0.88753389  0.77658544     0.19700
S754        S  0.61894322  0.90462053  0.82569029    -0.30900
H755        H  0.67199807  0.97009152  0.78839455     0.10000
C756        C  0.73697992  0.00429515  0.70957167     0.03200
C757        C  0.75386931  0.03928754  0.69344555    -0.13200
C758        C  0.76938237  0.07073156  0.71639485    -0.08900
C759        C  0.76920556  0.06687159  0.75632719     0.06700
C760        C  0.75172001  0.03197236  0.77239600    -0.14000
S761        S  0.71560390  0.96436195  0.67921607    -0.30900
H762        H  0.75392784  0.04212354  0.66285781     0.10900
S763        S  0.79250609  0.10522002  0.78827008    -0.28000
H764        H  0.75120302  0.02916844  0.80304764     0.08200
H765        H  0.62409867  0.88461676  0.85381454     0.26600
H766        H  0.72741759  0.98319692  0.64442521     0.21400
H767        H  0.82233298  0.12721006  0.76351841     0.26700
H768        H  0.79256134  0.99342675  0.75411591     0.15500
C769        C  0.67184237  0.68699901  0.90789649    -0.11700
C770        C  0.71077582  0.70687976  0.90463809     0.14800
C771        C  0.72942730  0.74170005  0.88753404     0.01700
C772        C  0.70864818  0.75602355  0.87435690    -0.16100
C773        C  0.66951643  0.73635116  0.87779413    -0.10900
C774        C  0.65095194  0.70095748  0.89413274     0.08400
C775        C  0.73081656  0.68992862  0.91865156     0.09400
S776        S  0.77941256  0.76896217  0.88103163    -0.25200
H777        H  0.72330332  0.78295426  0.86153664     0.19700
S778        S  0.60081790  0.67114356  0.89621896    -0.30900
H779        H  0.65756580  0.65993401  0.92043257     0.10000
C780        C  0.74013381  0.69185530  0.95731255     0.03200
C781        C  0.75757766  0.67387319  0.96995601    -0.13200
C782        C  0.76594931  0.65407092  0.94459271    -0.08900
C783        C  0.75800391  0.65369143  0.90547157     0.06700
C784        C  0.74001286  0.67114246  0.89303053    -0.14000
S785        S  0.72959369  0.71711211  0.99042504    -0.30900
H786        H  0.76373140  0.67433929  0.99991094     0.10900
S787        S  0.77151132  0.63299583  0.86985865    -0.28000
H788        H  0.73339525  0.67037422  0.86313474     0.08200
H789        H  0.59497737  0.67875254  0.85887404     0.26600
H790        H  0.74709915  0.71286667  0.02221913     0.21400
H791        H  0.80527120  0.64248783  0.88772643     0.26700
H792        H  0.78906247  0.75440398  0.91129610     0.15500
C793        C  0.42384109  0.61648497  0.86746741    -0.11700
C794        C  0.42690290  0.59903539  0.89961344     0.14800
C795        C  0.46154166  0.61534676  0.91882275     0.01700
C796        C  0.49092459  0.65022392  0.90786700    -0.16100
C797        C  0.48659933  0.66906568  0.87783888    -0.10900
C798        C  0.45333438  0.65108580  0.85624364     0.08400
C799        C  0.39224357  0.56652141  0.91469519     0.09400
S800        S  0.46911973  0.59415778  0.95897696    -0.25200
H801        H  0.51644060  0.66369252  0.92447404     0.19700
S802        S  0.44647626  0.67155980  0.81493690    -0.30900
H803        H  0.39763265  0.60382929  0.85208028     0.10000
C804        C  0.37383817  0.56949971  0.94661364     0.03200
C805        C  0.33856275  0.53974337  0.95705824    -0.13200
C806        C  0.32086769  0.50692618  0.93617206    -0.08900
C807        C  0.33989756  0.50380655  0.90468529     0.06700
C808        C  0.37533055  0.53342706  0.89453051    -0.14000
S809        S  0.39398365  0.61211686  0.97247694    -0.30900
H810        H  0.32402600  0.54246911  0.98088506     0.10900
S811        S  0.31919316  0.46427611  0.87412059    -0.28000
H812        H  0.38911852  0.53126121  0.86963603     0.08200
H813        H  0.48454184  0.69389377  0.80553619     0.26600
H814        H  0.36677791  0.59939746  0.00122458     0.21400
H815        H  0.28513561  0.46238786  0.87062464     0.26700
H816        H  0.44148746  0.55797123  0.94938775     0.15500
C817        C  0.74004173  0.02826157  0.26736404    -0.11700
C818        C  0.72911945  0.99915718  0.24206815     0.14800
C819        C  0.73852064  0.00669658  0.20321187     0.01700
C820        C  0.75891392  0.04303858  0.19075738    -0.16100
C821        C  0.76931058  0.07228169  0.21591562    -0.10900
C822        C  0.76026582  0.06458123  0.25487563     0.08400
C823        C  0.70755340  0.96137807  0.25719448     0.09400
S824        S  0.72435134  0.97132978  0.16786842    -0.25200
H825        H  0.76535080  0.04842216  0.16075883     0.19700
S826        S  0.77502069  0.09962918  0.29043604    -0.30900
H827        H  0.73316124  0.02260120  0.29725808     0.10000
C828        C  0.72307122  0.93965553  0.26021707     0.03200
C829        C  0.70094553  0.90365502  0.27368695    -0.13200
C830        C  0.66354946  0.88879686  0.28484533    -0.08900
C831        C  0.64899825  0.91179861  0.28371405     0.06700
C832        C  0.67093352  0.94738777  0.26950443    -0.14000
S833        S  0.77107846  0.95777621  0.24699690    -0.30900
H834        H  0.71269235  0.88673236  0.27446646     0.10900
S835        S  0.60317331  0.89828086  0.30050361    -0.28000
H836        H  0.65934971  0.96448700  0.26807624     0.08200
H837        H  0.80976766  0.12394725  0.27345936     0.26600
H838        H  0.77230407  0.92708105  0.25770769     0.21400
H839        H  0.60653792  0.88266317  0.33409205     0.26700
H840        H  0.69125979  0.94480794  0.18602616     0.15500
C841        C  0.73210749  0.74485184  0.38563486    -0.11700
C842        C  0.71403895  0.71413287  0.40941724     0.14800
C843        C  0.67757200  0.70191646  0.42225060     0.01700
C844        C  0.65876776  0.71801585  0.40791216    -0.16100
C845        C  0.67603340  0.74771323  0.38247845    -0.10900
C846        C  0.71402568  0.76227776  0.37288752     0.08400
C847        C  0.73374428  0.69529879  0.42000954     0.09400
S848        S  0.65340604  0.66595168  0.45691436    -0.25200
H849        H  0.63006071  0.70671574  0.41642536     0.19700
S850        S  0.74158764  0.80341479  0.34543782    -0.30900
H851        H  0.76061234  0.75533615  0.37683865     0.10000
C852        C  0.72015416  0.65884678  0.40902260     0.03200
C853        C  0.73815280  0.64136804  0.42206975    -0.13200
C854        C  0.77027644  0.65977652  0.44505444    -0.08900
C855        C  0.78570512  0.69743631  0.45295442     0.06700
C856        C  0.76691779  0.71439031  0.44108935    -0.14000
S857        S  0.68028657  0.63470162  0.37774574    -0.30900
H858        H  0.72658332  0.61291630  0.41498547     0.10900
S859        S  0.82984589  0.72596319  0.47674963    -0.28000
H860        H  0.77830670  0.74282250  0.44834278     0.08200
H861        H  0.72741946  0.82242844  0.36392588     0.26600
H862        H  0.67835407  0.60118380  0.37748603     0.21400
H863        H  0.84734071  0.70992097  0.45862998     0.26700
H864        H  0.68555109  0.67172373  0.47545582     0.15500
C865        C  0.43030566  0.61835590  0.37878131    -0.11700
C866        C  0.43199521  0.60541337  0.41481331     0.14800
C867        C  0.46456219  0.62571431  0.43708412     0.01700
C868        C  0.49376640  0.65949556  0.42373982    -0.16100
C869        C  0.49070467  0.67375898  0.38910904    -0.10900
C870        C  0.45913440  0.65243352  0.36584606     0.08400
C871        C  0.39697494  0.57453640  0.43049810     0.09400
S872        S  0.46871594  0.61246493  0.48453125    -0.25200
H873        H  0.51762797  0.67612648  0.44200497     0.19700
S874        S  0.45284755  0.66840678  0.32078463    -0.30900
H875        H  0.40521322  0.60289044  0.36175141     0.10000
C876        C  0.36963588  0.58043419  0.44499153     0.03200
C877        C  0.33451188  0.55041176  0.45455472    -0.13200
C878        C  0.32593306  0.51436065  0.45010522    -0.08900
C879        C  0.35464147  0.50878107  0.43857512     0.06700
C880        C  0.38949227  0.53888246  0.42794313    -0.14000
S881        S  0.37881320  0.62623960  0.44928498    -0.30900
H882        H  0.31305866  0.55504635  0.46413952     0.10900
S883        S  0.34819636  0.46424407  0.43447458    -0.28000
H884        H  0.41076265  0.53450714  0.41706644     0.08200
H885        H  0.49103144  0.69275417  0.31323054     0.26600
H886        H  0.34466252  0.61651078  0.46631556     0.21400
H887        H  0.33658149  0.45489377  0.47246406     0.26700
H888        H  0.44475739  0.57462207  0.47933770     0.15500
C889        C  0.62166283  0.81405011  0.62663884    -0.11700
C890        C  0.58909366  0.78735879  0.60813691     0.14800
C891        C  0.55830172  0.76095928  0.62972052     0.01700
C892        C  0.56062428  0.76212937  0.66942644    -0.16100
C893        C  0.59339728  0.78859964  0.68803347    -0.10900
C894        C  0.62403940  0.81521223  0.66627123     0.08400
C895        C  0.58739127  0.78907689  0.56640568     0.09400
S896        S  0.51536288  0.72527689  0.60835270    -0.25200
H897        H  0.53709212  0.74156550  0.68588048     0.19700
S898        S  0.66615763  0.85241033  0.68733523    -0.30900
H899        H  0.64504014  0.83468318  0.61006297     0.10000
C900        C  0.57122954  0.80660171  0.54886497     0.03200
C901        C  0.56864362  0.80625550  0.50913758    -0.13200
C902        C  0.58188352  0.78864467  0.48648264    -0.08900
C903        C  0.59868378  0.77156998  0.50452118     0.06700
C904        C  0.60178329  0.77256120  0.54414335    -0.14000
S905        S  0.55403491  0.82946296  0.57721315    -0.30900
H906        H  0.55604433  0.81961901  0.49564856     0.10900
S907        S  0.61450577  0.74598134  0.47932078    -0.28000
H908        H  0.61420239  0.75909776  0.55788642     0.08200
H909        H  0.64773515  0.85761390  0.71756505     0.26600
H910        H  0.53985026  0.83970679  0.54689283     0.21400
H911        H  0.58257025  0.72722957  0.45617306     0.26700
H912        H  0.53138595  0.72176853  0.57495030     0.15500
C913        C  0.58884867  0.75530893  0.12563055    -0.11700
C914        C  0.58135724  0.77982433  0.10807594     0.14800
C915        C  0.57273172  0.80133525  0.13079342     0.01700
C916        C  0.57237697  0.79822351  0.17044703    -0.16100
C917        C  0.58006751  0.77384661  0.18806135    -0.10900
C918        C  0.58793436  0.75183507  0.16521681     0.08400
C919        C  0.57932989  0.77968696  0.06607771     0.09400
S920        S  0.56241613  0.83350951  0.11104734    -0.25200
H921        H  0.56779870  0.81618836  0.18769301     0.19700
S922        S  0.59614308  0.71819256  0.18484771    -0.30900
H923        H  0.59459775  0.73813110  0.10826698     0.10000
C924        C  0.61157800  0.79607634  0.04310960     0.03200
C925        C  0.60779670  0.79438353  0.00328640    -0.13200
C926        C  0.57233114  0.77625836  0.98608935    -0.08900
C927        C  0.54017756  0.75847463  0.00953848     0.06700
C928        C  0.54406651  0.76108562  0.04902242    -0.14000
S929        S  0.65739945  0.82002353  0.06457593    -0.30900
H930        H  0.63245348  0.80784950  0.98552700     0.10900
S931        S  0.49337499  0.73011823  0.99112325    -0.28000
H932        H  0.51932598  0.74757779  0.06673337     0.08200
H933        H  0.57302936  0.71007421  0.21680044     0.26600
H934        H  0.67777198  0.82863223  0.03049245     0.21400
H935        H  0.50338817  0.71476780  0.96182870     0.26700
H936        H  0.58339320  0.84091509  0.07759127     0.15500
C937        C  0.03863014  0.70646730  0.62321476    -0.11700
C938        C  0.03020320  0.72255891  0.59353743     0.14800
C939        C  0.05811956  0.75746655  0.58021282     0.01700
C940        C  0.09407074  0.77483809  0.59591336    -0.16100
C941        C  0.10316216  0.75787059  0.62419239    -0.10900
C942        C  0.07457534  0.72378866  0.63880690     0.08400
C943        C  0.99207072  0.70198117  0.57719994     0.09400
S944        S  0.05018187  0.78080644  0.54247311    -0.25200
H945        H  0.11569739  0.80086325  0.58425774     0.19700
S946        S  0.08210587  0.70147543  0.67777800    -0.30900
H947        H  0.01703391  0.68005487  0.63413779     0.10000
C948        C  0.98166697  0.67403520  0.55017221     0.03200
C949        C  0.94452104  0.65327309  0.53738588    -0.13200
C950        C  0.91759311  0.66029102  0.55060915    -0.08900
C951        C  0.92858697  0.68909515  0.57704988     0.06700
C952        C  0.96550692  0.70939174  0.59014214    -0.14000
S953        S  0.01581896  0.66485218  0.53212999    -0.30900
H954        H  0.93627281  0.63121563  0.51731214     0.10900
S955        S  0.89607555  0.69896803  0.59789597    -0.28000
H956        H  0.97345735  0.73069123  0.61115588     0.08200
H957        H  0.10637033  0.73435031  0.69713628     0.26600
H958        H  0.99200914  0.63727032  0.50629542     0.21400
H959        H  0.88970362  0.71097464  0.56321328     0.26700
H960        H  0.02195393  0.74951233  0.52359864     0.15500
C961        C  0.26520580  0.96955779  0.73120862    -0.11700
C962        C  0.29684627  0.98202119  0.75411951     0.14800
C963        C  0.30841836  0.95784849  0.76346417     0.01700
C964        C  0.28986168  0.92277251  0.74757092    -0.16100
C965        C  0.25910144  0.91045637  0.72296481    -0.10900
C966        C  0.24577128  0.93397071  0.71623131     0.08400
C967        C  0.31958440  0.02129197  0.76440283     0.09400
S968        S  0.34780271  0.97074562  0.79405739    -0.25200
H969        H  0.30028548  0.90529863  0.75396809     0.19700
S970        S  0.20407764  0.92053912  0.68945272    -0.30900
H971        H  0.25590098  0.98792661  0.72449061     0.10000
C972        C  0.35131978  0.04574151  0.74290484     0.03200
C973        C  0.37302373  0.08256549  0.75372797    -0.13200
C974        C  0.36356649  0.09576956  0.78547845    -0.08900
C975        C  0.33172035  0.07112017  0.80709839     0.06700
C976        C  0.30984070  0.03425154  0.79607236    -0.14000
S977        S  0.36368504  0.03015969  0.70106270    -0.30900
H978        H  0.39707987  0.10143040  0.73679811     0.10900
S979        S  0.31848883  0.08461868  0.84973402    -0.28000
H980        H  0.28556324  0.01534901  0.81275095     0.08200
H981        H  0.18288961  0.88619021  0.70722686     0.26600
H982        H  0.39459707  0.06435126  0.69030748     0.21400
H983        H  0.35520294  0.11064475  0.86127992     0.26700
H984        H  0.34410257  0.99556359  0.81648806     0.15500
C985        C  0.43075258  0.81675145  0.79630049    -0.11700
C986        C  0.42534625  0.81298579  0.75687386     0.14800
C987        C  0.45244012  0.81250079  0.73376595     0.01700
C988        C  0.48184347  0.81153784  0.75097402    -0.16100
C989        C  0.48516265  0.81192606  0.79074484    -0.10900
C990        C  0.46057020  0.81689790  0.81335932     0.08400
C991        C  0.38921089  0.80589272  0.74214925     0.09400
S992        S  0.45020187  0.81151914  0.68252780    -0.25200
H993        H  0.50102954  0.80856693  0.73328683     0.19700
S994        S  0.46520824  0.82283412  0.86428251    -0.30900
H995        H  0.41071346  0.81822299  0.81414859     0.10000
C996        C  0.36129838  0.77081053  0.72921316     0.03200
C997        C  0.32527635  0.76326335  0.72194674    -0.13200
C998        C  0.31592771  0.78957095  0.72843614    -0.08900
C999        C  0.34414330  0.82479022  0.74129776     0.06700
C1000       C  0.38042983  0.83266538  0.74729974    -0.14000
S1001       S  0.37048230  0.73459792  0.72494695    -0.30900
H1002       H  0.30388413  0.73624455  0.71222155     0.10900
S1003       S  0.33519083  0.85976723  0.75424375    -0.28000
H1004       H  0.40154217  0.85928249  0.75832805     0.08200
H1005       H  0.50436930  0.84063667  0.86463517     0.26600
H1006       H  0.33486443  0.70729109  0.71189069     0.21400
H1007       H  0.30196117  0.83575585  0.77387108     0.26700
H1008       H  0.42735258  0.82588576  0.67919722     0.15500
C1009       C  0.14979108  0.52673317  0.57610776    -0.11700
C1010       C  0.17950655  0.56341158  0.57602189     0.14800
C1011       C  0.21384586  0.57276631  0.55947962     0.01700
C1012       C  0.21700267  0.54581338  0.54139220    -0.16100
C1013       C  0.18712895  0.50914596  0.54055363    -0.10900
C1014       C  0.15316159  0.49952259  0.55848059     0.08400
C1015       C  0.17453678  0.59137585  0.59417485     0.09400
S1016       S  0.25494358  0.61840993  0.56104638    -0.25200
H1017       H  0.24346376  0.55350734  0.52847688     0.19700
S1018       S  0.11272313  0.45363201  0.55836117    -0.30900
H1019       H  0.12356671  0.51942090  0.58931187     0.10000
C1020       C  0.17525017  0.61942175  0.57295533     0.03200
C1021       C  0.17633535  0.64846789  0.59211081    -0.13200
C1022       C  0.17655949  0.64986713  0.63204537    -0.08900
C1023       C  0.17256359  0.61996811  0.65294324     0.06700
C1024       C  0.17200674  0.59136157  0.63381517    -0.14000
S1025       S  0.17564483  0.61863541  0.52159402    -0.30900
H1026       H  0.17869080  0.67092082  0.57595817     0.10900
S1027       S  0.16802580  0.61648107  0.70398483    -0.28000
H1028       H  0.17064574  0.56936728  0.65003713     0.08200
H1029       H  0.11698663  0.44686183  0.52017874     0.26600
H1030       H  0.18009930  0.65297329  0.51603327     0.21400
H1031       H  0.14736419  0.63331305  0.70651040     0.26700
H1032       H  0.24711106  0.62832607  0.59623312     0.15500
C1033       C  0.05158361  0.75485337  0.08504470    -0.11700
C1034       C  0.02788149  0.71706281  0.09074537     0.14800
C1035       C  0.04106007  0.69852226  0.11213784     0.01700
C1036       C  0.07772732  0.71779214  0.12608073    -0.16100
C1037       C  0.10164266  0.75568943  0.12040290    -0.10900
C1038       C  0.08781397  0.77438604  0.10010545     0.08400
C1039       C  0.98991819  0.69764910  0.07350046     0.09400
S1040       S  0.01256858  0.65029530  0.12256055    -0.25200
H1041       H  0.08773519  0.70293765  0.14146356     0.19700
S1042       S  0.11573422  0.82254831  0.08986122    -0.30900
H1043       H  0.04179774  0.76925300  0.06845206     0.10000
C1044       C  0.96282040  0.70527665  0.08492192     0.03200
C1045       C  0.92677074  0.68508052  0.06933856    -0.13200
C1046       C  0.91676662  0.65684839  0.04292333    -0.08900
C1047       C  0.94450986  0.65035396  0.03034588     0.06700
C1048       C  0.98059718  0.67071102  0.04573274    -0.14000
S1049       S  0.97312804  0.73871667  0.12160140    -0.30900
H1050       H  0.90561819  0.68988979  0.07952222     0.10900
S1051       S  0.93577726  0.61691149  0.99446793    -0.28000
H1052       H  0.00155121  0.66527970  0.03627144     0.08200
H1053       H  0.11995572  0.83246328  0.12852114     0.26600
H1054       H  0.93837438  0.73571404  0.12109230     0.21400
H1055       H  0.91291438  0.62450250  0.97254097     0.26700
H1056       H  0.97852055  0.64864178  0.12450803     0.15500
C1057       C  0.30305973  0.03428500  0.29432386    -0.11700
C1058       C  0.32000100  0.01851264  0.27481486     0.14800
C1059       C  0.35858414  0.04000378  0.26721238     0.01700
C1060       C  0.37884176  0.07695243  0.27724170    -0.16100
C1061       C  0.36192871  0.09363832  0.29539302    -0.10900
C1062       C  0.32357798  0.07131163  0.30518899     0.08400
C1063       C  0.29658101  0.98087617  0.25931956     0.09400
S1064       S  0.38345365  0.02226687  0.24336877    -0.25200
H1065       H  0.40809986  0.09299901  0.26952164     0.19700
S1066       S  0.29900107  0.08794305  0.33138139    -0.30900
H1067       H  0.27346242  0.01775361  0.30054984     0.10000
C1068       C  0.28195894  0.94959674  0.28252684     0.03200
C1069       C  0.26231202  0.91464031  0.26571219    -0.13200
C1070       C  0.25726870  0.91035177  0.22606492    -0.08900
C1071       C  0.27259756  0.94197659  0.20300772     0.06700
C1072       C  0.29126645  0.97661825  0.21988541    -0.14000
S1073       S  0.28980102  0.95427098  0.33323839    -0.30900
H1074       H  0.25110057  0.89055113  0.28343148     0.10900
S1075       S  0.27216100  0.94031598  0.15176726    -0.28000
H1076       H  0.30321142  0.00066845  0.20195000     0.08200
H1077       H  0.32848662  0.10866915  0.35705200     0.26600
H1078       H  0.27245149  0.91674097  0.34119261     0.21400
H1079       H  0.27986705  0.91245192  0.14950345     0.26700
H1080       H  0.36108300  0.98632843  0.25708928     0.15500
C1081       C  0.44765728  0.81855389  0.23958063    -0.11700
C1082       C  0.41388654  0.80457043  0.25913335     0.14800
C1083       C  0.40925915  0.78762886  0.29470232     0.01700
C1084       C  0.43864462  0.78596529  0.31025889    -0.16100
C1085       C  0.47265786  0.79939549  0.29071454    -0.10900
C1086       C  0.47679919  0.81587019  0.25465017     0.08400
C1087       C  0.38295390  0.80569391  0.24098900     0.09400
S1088       S  0.36619901  0.76652339  0.32138474    -0.25200
H1089       H  0.43416865  0.77297575  0.33773787     0.19700
S1090       S  0.51775968  0.83313938  0.22575976    -0.30900
H1091       H  0.45104150  0.83103310  0.21195011     0.10000
C1092       C  0.36889622  0.82597723  0.25675646     0.03200
C1093       C  0.33463838  0.81973487  0.24378682    -0.13200
C1094       C  0.31416562  0.79346080  0.21550082    -0.08900
C1095       C  0.33074628  0.77678317  0.19647192     0.06700
C1096       C  0.36489642  0.78290085  0.20964270    -0.14000
S1097       S  0.39358645  0.85829459  0.29471605    -0.30900
H1098       H  0.32251127  0.83334937  0.25773702     0.10900
S1099       S  0.30857585  0.74763209  0.15557683    -0.28000
H1100       H  0.37666581  0.76845053  0.19683566     0.08200
H1101       H  0.51312749  0.79843884  0.22343985     0.26600
H1102       H  0.36896568  0.87064083  0.29822736     0.21400
H1103       H  0.33500303  0.73779972  0.14994035     0.26700
H1104       H  0.34215707  0.75440049  0.28978129     0.15500
C1105       C  0.18461946  0.54327155  0.09447327    -0.11700
C1106       C  0.16536924  0.55580536  0.07349123     0.14800
C1107       C  0.15176092  0.54108489  0.03699644     0.01700
C1108       C  0.15977432  0.51620395  0.02139757    -0.16100
C1109       C  0.17998988  0.50439965  0.04189069    -0.10900
C1110       C  0.19136449  0.51728791  0.07946805     0.08400
C1111       C  0.16403697  0.58721557  0.08856810     0.09400
S1112       S  0.12449630  0.55337259  0.00877831    -0.25200
H1113       H  0.15028786  0.50608938  0.99281166     0.19700
S1114       S  0.21765616  0.50440528  0.10826977    -0.30900
H1115       H  0.19551921  0.55469639  0.12236864     0.10000
C1116       C  0.14695652  0.58538163  0.12358532     0.03200
C1117       C  0.15125428  0.61732805  0.13915615    -0.13200
C1118       C  0.17222064  0.65119421  0.12046068    -0.08900
C1119       C  0.18770715  0.65247439  0.08446027     0.06700
C1120       C  0.18326061  0.62056240  0.06890077    -0.14000
S1121       S  0.11980299  0.54243297  0.14850488    -0.30900
H1122       H  0.13906107  0.61617462  0.16658147     0.10900
S1123       S  0.21617163  0.69427599  0.05841005    -0.28000
H1124       H  0.19665846  0.62214321  0.04209089     0.08200
H1125       H  0.18866493  0.46730429  0.10927289     0.26600
H1126       H  0.11121358  0.55621797  0.18044382     0.21400
H1127       H  0.23759759  0.71452148  0.09008067     0.26700
H1128       H  0.10872166  0.56109294  0.03971623     0.15500
C1129       C  0.23756531  0.78481453  0.96714010    -0.11700
C1130       C  0.21120492  0.78887454  0.94726429     0.14800
C1131       C  0.18773216  0.79688801  0.96766783     0.01700
C1132       C  0.19022578  0.79944917  0.00731759    -0.16100
C1133       C  0.21638627  0.79516746  0.02742437    -0.10900
C1134       C  0.24094595  0.78863027  0.00680542     0.08400
C1135       C  0.20853113  0.78429556  0.90536459     0.09400
S1136       S  0.15410806  0.80423876  0.94480411    -0.25200
H1137       H  0.17133665  0.80469514  0.02266542     0.19700
S1138       S  0.27842173  0.78699044  0.02895900    -0.30900
H1139       H  0.25608487  0.77926919  0.95150865     0.10000
C1140       C  0.23637039  0.81080516  0.88124709     0.03200
C1141       C  0.23276799  0.80541140  0.84177587    -0.13200
C1142       C  0.20206612  0.77383196  0.82573441    -0.08900
C1143       C  0.17357444  0.74786963  0.85001037     0.06700
C1144       C  0.17727986  0.75324137  0.88946266    -0.14000
S1145       S  0.27640071  0.85166784  0.90069356    -0.30900
H1146       H  0.25459365  0.82540726  0.82334579     0.10900
S1147       S  0.13138154  0.70804636  0.83249959    -0.28000
H1148       H  0.15551932  0.73317038  0.90797217     0.08200
H1149       H  0.28574867  0.81306993  0.05721130     0.26600
H1150       H  0.29453384  0.86677610  0.86592059     0.21400
H1151       H  0.12933261  0.72487669  0.79916951     0.26700
H1152       H  0.17481742  0.81983944  0.91139255     0.15500
C1153       C  0.23197972  0.76252935  0.38640554    -0.11700
C1154       C  0.20987772  0.77291336  0.40510181     0.14800
C1155       C  0.18846281  0.78277979  0.38344277     0.01700
C1156       C  0.18933168  0.78163435  0.34361331    -0.16100
C1157       C  0.21093762  0.77054728  0.32470125    -0.10900
C1158       C  0.23324137  0.76176443  0.34670898     0.08400
C1159       C  0.21206541  0.77579603  0.44708642     0.09400
S1160       S  0.15951713  0.79708069  0.40482551    -0.25200
H1161       H  0.17225318  0.78859923  0.32730928     0.19700
S1162       S  0.26569195  0.75150513  0.32623173    -0.30900
H1163       H  0.24924830  0.75595470  0.40295634     0.10000
C1164       C  0.19193211  0.74483349  0.47057155     0.03200
C1165       C  0.19452901  0.74917078  0.51029237    -0.13200
C1166       C  0.21694788  0.78392973  0.52698378    -0.08900
C1167       C  0.23842183  0.81460111  0.50309121     0.06700
C1168       C  0.23533317  0.81024629  0.46359298    -0.14000
S1169       S  0.16192053  0.70008246  0.44987393    -0.30900
H1170       H  0.17814346  0.72559488  0.52838494     0.10900
S1171       S  0.27126225  0.85983875  0.52103515    -0.28000
H1172       H  0.25149993  0.83389630  0.44547773     0.08200
H1173       H  0.27749488  0.77797532  0.29753349     0.26600
H1174       H  0.14632372  0.68141073  0.48418659     0.21400
H1175       H  0.28242868  0.84779412  0.55247303     0.26700
H1176       H  0.15276414  0.77807944  0.43923998     0.15500
loop_ 
_geom_bond_atom_site_label_1 
_geom_bond_atom_site_label_2 
_geom_bond_distance 
_geom_bond_site_symmetry_2 
_ccdc_geom_bond_type 
O1           Ni7   1.911       .  S
O1           C22   1.267       .  A
O2          Ni25   1.902       .  S
O2           C11   1.266       .  A
O3           Ni7   1.925       .  S
O3          Ni25   1.922       .  S
O3          Ni19   1.940       .  S
O3           H26   0.966       .  S
C4           O21   1.275       .  A
C4           O13   1.276       .  A
C4         C1133   1.483       .  S
O5          Ni24   1.939       .  S
O5           C11   1.274       .  A
O6          Ni24   1.914       .  S
O6            C8   1.271       .  A
Ni7          O10   1.924       .  S
Ni7          O12   1.900       .  S
C8           O18   1.274       .  A
C8         C1037   1.489       .  S
O9          Ni25   1.915       .  S
O9           C15   1.268       .  A
O10          C15   1.268       .  A
C11        C1070   1.484       .  S
O12          C14   1.270       .  A
O13         Ni24   1.932       .  S
C14          O20   1.278       .  A
C14        C1094   1.482       .  S
C15        C1157   1.487       .  S
H16          O17   0.966       .  S
O17         Ni25   1.905       .  S
O17         Ni19   1.902       .  S
O17         Ni24   1.917       .  S
O18         Ni19   1.932       .  S
Ni19         O23   1.914       .  S
Ni19         O21   1.917       .  S
O20         Ni25   1.944       .  S
C22          O23   1.268       .  A
C22        C1118   1.481       .  S
O27         Ni33   1.926       .  S
O27          C48   1.271       .  A
O28         Ni51   1.895       .  S
O28          C37   1.268       .  A
O29         Ni33   1.908       .  S
O29         Ni51   1.900       .  S
O29         Ni45   1.914       .  S
O29          H52   0.965       .  S
C30          O47   1.276       .  A
C30          O39   1.278       .  A
C30        C1166   1.484       .  S
O31         Ni50   1.947       .  S
O31          C37   1.277       .  A
O32         Ni50   1.915       .  S
O32          C34   1.272       .  A
Ni33         O36   1.924       .  S
Ni33         O38   1.908       .  S
C34          O44   1.272       .  A
C34         C941   1.484       .  S
O35         Ni51   1.918       .  S
O35          C41   1.275       .  A
O36          C41   1.275       .  A
C37         C965   1.495       .  S
O38          C40   1.270       .  A
O39         Ni50   1.934       .  S
C40          O46   1.272       .  A
C40         C998   1.487       .  S
C41        C1142   1.482       .  S
H42          O43   0.966       .  S
O43         Ni51   1.905       .  S
O43         Ni45   1.903       .  S
O43         Ni50   1.908       .  S
O44         Ni45   1.928       .  S
Ni45         O49   1.908       .  S
Ni45         O47   1.916       .  S
O46         Ni51   1.929       .  S
C48          O49   1.268       .  A
C48        C1022   1.480       .  S
O53         Ni59   1.919       .  S
O53          C74   1.269       .  A
O54         Ni77   1.904       .  S
O54          C63   1.266       .  A
O55         Ni59   1.921       .  S
O55         Ni77   1.917       .  S
O55         Ni71   1.921       .  S
O55          H78   0.965       .  S
C56          O73   1.274       .  A
C56          O65   1.273       .  A
C56         C917   1.476       .  S
O57         Ni76   1.938       .  S
O57          C63   1.272       .  A
O58         Ni76   1.913       .  S
O58          C60   1.272       .  A
Ni59         O62   1.921       .  S
Ni59         O64   1.895       .  S
C60          O70   1.272       .  A
C60         C830   1.495       .  S
O61         Ni77   1.908       .  S
O61          C67   1.269       .  A
O62          C67   1.272       .  A
C63         C845   1.497       .  S
O64          C66   1.266       .  A
O65         Ni76   1.926       .  S
C66          O72   1.272       .  A
C66         C869   1.467       .  S
C67         C902   1.483       .  S
H68          O69   0.966       .  S
O69         Ni77   1.909       .  S
O69         Ni71   1.917       .  S
O69         Ni76   1.919       .  S
O70         Ni71   1.930       .  S
Ni71         O75   1.918       .  S
Ni71         O73   1.915       .  S
O72         Ni77   1.933       .  S
C74          O75   1.268       .  A
C74        C1085   1.499       .  S
O79         Ni85   1.919       .  S
O79         C100   1.268       .  A
O80        Ni103   1.895       .  S
O80          C89   1.265       .  A
O81         Ni85   1.915       .  S
O81        Ni103   1.913       .  S
O81         Ni97   1.916       .  S
O81         H104   0.963       .  S
C82          O99   1.272       .  A
C82          O91   1.274       .  A
C82         C893   1.473       .  S
O83        Ni102   1.926       .  S
O83          C89   1.270       .  A
O84        Ni102   1.906       .  S
O84          C86   1.269       .  A
Ni85         O88   1.918       .  S
Ni85         O90   1.903       .  S
C86          O96   1.273       .  A
C86         C749   1.488       .  S
O87        Ni103   1.920       .  S
O87          C93   1.274       .  A
O88          C93   1.273       .  A
C89         C773   1.480       .  S
O90          C92   1.267       .  A
O91        Ni102   1.926       .  S
C92          O98   1.272       .  A
C92         C797   1.479       .  S
C93         C926   1.483       .  S
H94          O95   0.966       .  S
O95        Ni103   1.914       .  S
O95         Ni97   1.910       .  S
O95        Ni102   1.921       .  S
O96         Ni97   1.933       .  S
Ni97        O101   1.914       .  S
Ni97         O99   1.909       .  S
O98        Ni103   1.937       .  S
C100        O101   1.267       .  A
C100        C989   1.479       .  S
O105       Ni111   1.928       .  S
O105        C126   1.271   1_556  A
O106       Ni129   1.913       .  S
O106        C115   1.270       .  A
O107       Ni111   1.920       .  S
O107       Ni129   1.916       .  S
O107       Ni123   1.924   1_556  S
O107        H130   0.966       .  S
C108        O125   1.271       .  A
C108        O117   1.270       .  A
C108        C677   1.484       .  S
O109       Ni128   1.924   1_556  S
O109        C115   1.270       .  A
O110       Ni128   1.912       .  S
O110        C112   1.270       .  A
Ni111       O114   1.928       .  S
Ni111       O116   1.903       .  S
C112        O122   1.274       .  A
C112        C710   1.495       .  S
O113       Ni129   1.914       .  S
O113        C119   1.269       .  A
O114        C119   1.273       .  A
C115        C734   1.489       .  S
O116        C118   1.271       .  A
O117       Ni128   1.922       .  S
C118        O124   1.280       .  A
C118        C806   1.488       .  S
C119        C662   1.494       .  S
H120        O121   0.966       .  S
O121       Ni129   1.916   1_554  S
O121       Ni123   1.911       .  S
O121       Ni128   1.928       .  S
O122       Ni123   1.929       .  S
Ni123       O127   1.906       .  S
Ni123       O125   1.916       .  S
O124       Ni129   1.956       .  S
C126        O127   1.265       .  A
C126       C1109   1.484       .  S
O131       Ni137   1.922       .  S
O131        C152   1.269       .  A
O132       Ni155   1.907       .  S
O132        C141   1.271       .  A
O133       Ni137   1.904       .  S
O133       Ni155   1.906       .  S
O133       Ni149   1.911       .  S
O133        H156   0.965       .  S
C134        O151   1.274       .  A
C134        O143   1.279       .  A
C134        C653   1.478       .  S
O135       Ni154   1.939       .  S
O135        C141   1.275       .  A
O136       Ni154   1.907       .  S
O136        C138   1.269       .  A
Ni137       O140   1.912       .  S
Ni137       O142   1.902       .  S
C138        O148   1.273       .  A
C138        C605   1.483       .  S
O139       Ni155   1.933       .  S
O139        C145   1.279       .  A
O140        C145   1.275       .  A
C141        C638   1.491       .  S
O142        C144   1.269       .  A
O143       Ni154   1.945       .  S
C144        O150   1.270       .  A
C144        C878   1.485       .  S
C145        C686   1.485       .  S
H146        O147   0.966       .  S
O147       Ni155   1.910       .  S
O147       Ni149   1.901       .  S
O147       Ni154   1.905       .  S
O148       Ni149   1.935       .  S
Ni149       O153   1.910       .  S
Ni149       O151   1.908       .  S
O150       Ni155   1.925       .  S
C152        O153   1.267       .  A
C152       C1013   1.479       .  S
O157       Ni163   1.919       .  S
O157        C178   1.267       .  A
O158       Ni181   1.898       .  S
O158        C167   1.268       .  A
O159       Ni163   1.908       .  S
O159       Ni181   1.905       .  S
O159       Ni175   1.915       .  S
O159        H182   0.966       .  S
C160        O177   1.274       .  A
C160        O169   1.277       .  A
C160        C581   1.482       .  S
O161       Ni180   1.944       .  S
O161        C167   1.276       .  A
O162       Ni180   1.919       .  S
O162        C164   1.272       .  A
Ni163       O166   1.916       .  S
Ni163       O168   1.898       .  S
C164        O174   1.273       .  A
C164       C1061   1.497       .  S
O165       Ni181   1.927       .  S
O165        C171   1.278       .  A
O166        C171   1.274       .  A
C167        C629   1.486       .  S
O168        C170   1.267       .  A
O169       Ni180   1.937       .  S
C170        O176   1.272       .  A
C170        C542   1.475       .  S
C171        C557   1.490       .  S
H172        O173   0.966       .  S
O173       Ni181   1.915       .  S
O173       Ni175   1.908       .  S
O173       Ni180   1.919       .  S
O174       Ni175   1.925       .  S
Ni175       O179   1.917       .  S
Ni175       O177   1.912       .  S
O176       Ni181   1.932       .  S
C178        O179   1.268       .  A
C178        C509   1.480       .  S
O183       Ni189   1.921       .  S
O183        C204   1.269       .  A
O184       Ni207   1.902       .  S
O184        C193   1.269       .  A
O185       Ni189   1.920       .  S
O185       Ni207   1.917       .  S
O185       Ni201   1.928       .  S
O185        H208   0.965       .  S
C186        O203   1.268       .  A
C186        O195   1.273       .  A
C186        C566   1.474       .  S
O187       Ni206   1.931       .  S
O187        C193   1.273       .  A
O188       Ni206   1.911       .  S
O188        C190   1.271       .  A
Ni189       O192   1.930       .  S
Ni189       O194   1.901       .  S
C190        O200   1.277       .  A
C190        C974   1.481       .  S
O191       Ni207   1.913       .  S
O191        C197   1.268       .  A
O192        C197   1.271       .  A
C193        C725   1.490       .  S
O194        C196   1.271       .  A
O195       Ni206   1.936       .  S
C196        O202   1.279       .  A
C196        C485   1.476       .  S
C197        C590   1.485       .  S
H198        O199   0.966       .  S
O199       Ni207   1.912       .  S
O199       Ni201   1.904       .  S
O199       Ni206   1.920       .  S
O200       Ni201   1.942       .  S
Ni201       O205   1.905       .  S
Ni201       O203   1.909       .  S
O202       Ni207   1.951       .  S
C204        O205   1.266       .  A
C204        C470   1.477       .  S
O209       Ni215   1.919       .  S
O209        C230   1.268       .  A
O210       Ni233   1.903       .  S
O210        C219   1.270       .  A
O211       Ni215   1.914       .  S
O211       Ni233   1.910       .  S
O211       Ni227   1.922       .  S
O211        H234   0.966       .  S
C212        O229   1.277       .  A
C212        O221   1.278       .  A
C212        C422   1.480       .  S
O213       Ni232   1.939       .  S
O213        C219   1.276       .  A
O214       Ni232   1.916       .  S
O214        C216   1.270       .  A
Ni215       O218   1.913       .  S
Ni215       O220   1.907       .  S
C216        O226   1.271       .  A
C216        C701   1.478       .  S
O217       Ni233   1.922       .  S
O217        C223   1.275       .  A
O218        C223   1.271       .  A
C219        C821   1.484       .  S
O220        C222   1.271       .  A
O221       Ni232   1.936       .  S
C222        O228   1.275       .  A
C222        C518   1.489       .  S
C223        C437   1.483       .  S
H224        O225   0.967       .  S
O225       Ni233   1.905       .  S
O225       Ni227   1.899       .  S
O225       Ni232   1.910       .  S
O226       Ni227   1.925       .  S
Ni227       O231   1.907       .  S
Ni227       O229   1.917       .  S
O228       Ni233   1.933       .  S
C230        O231   1.267       .  A
C230        C398   1.468       .  S
O235       Ni241   1.928       .  S
O235        C256   1.272       .  A
O236       Ni259   1.899       .  S
O236        C245   1.268       .  A
O237       Ni241   1.905       .  S
O237       Ni259   1.897       .  S
O237       Ni253   1.910       .  S
O237        H260   0.966       .  S
C238        O255   1.274       .  A
C238        O247   1.278       .  A
C238        C446   1.495       .  S
O239       Ni258   1.939       .  S
O239        C245   1.275       .  A
O240       Ni258   1.909       .  S
O240        C242   1.270       .  A
Ni241       O244   1.923       .  S
Ni241       O246   1.909       .  S
C242        O252   1.275       .  A
C242        C614   1.484       .  S
O243       Ni259   1.923       .  S
O243        C249   1.277       .  A
O244        C249   1.276       .  A
C245        C758   1.480       .  S
O246        C248   1.269       .  A
O247       Ni258   1.930       .  S
C248        O254   1.272       .  A
C248        C461   1.478       .  S
C249        C413   1.484       .  S
H250        O251   0.966       .  S
O251       Ni259   1.911       .  S
O251       Ni253   1.907       .  S
O251       Ni258   1.906       .  S
O252       Ni253   1.933       .  S
Ni253       O257   1.911       .  S
Ni253       O255   1.912       .  S
O254       Ni259   1.930       .  S
C256        O257   1.269       .  A
C256        C365   1.478       .  S
O261       Ni267   1.922       .  S
O261        C282   1.269   1_556  A
O262       Ni285   1.900       .  S
O262        C271   1.267       .  A
O263       Ni267   1.911       .  S
O263       Ni285   1.908       .  S
O263       Ni279   1.919   1_556  S
O263        H286   0.965       .  S
C264        O281   1.277       .  A
C264        O273   1.276       .  A
C264        C341   1.479       .  S
O265       Ni284   1.931   1_556  S
O265        C271   1.272       .  A
O266       Ni284   1.913       .  S
O266        C268   1.270       .  A
Ni267       O270   1.917       .  S
Ni267       O272   1.904       .  S
C268        O278   1.270       .  A
C268       C1046   1.487       .  S
O269       Ni285   1.914       .  S
O269        C275   1.273       .  A
O270        C275   1.273       .  A
C271        C782   1.476       .  S
O272        C274   1.269       .  A
O273       Ni284   1.924       .  S
C274        O280   1.274       .  A
C274        C494   1.482       .  S
C275        C317   1.476       .  S
H276        O277   0.966       .  S
O277       Ni285   1.909   1_554  S
O277       Ni279   1.901       .  S
O277       Ni284   1.912       .  S
O278       Ni279   1.926       .  S
Ni279       O283   1.899       .  S
Ni279       O281   1.919       .  S
O280       Ni285   1.935       .  S
C282        O283   1.265       .  A
C282        C389   1.464       .  S
O287       Ni293   1.913       .  S
O287        C308   1.268       .  A
O288       Ni311   1.911       .  S
O288        C297   1.270       .  A
O289       Ni293   1.919       .  S
O289       Ni311   1.925       .  S
O289       Ni305   1.938       .  S
O289        H312   0.966       .  S
C290        O307   1.273       .  A
C290        O299   1.275       .  A
C290        C326   1.488       .  S
O291       Ni310   1.933       .  S
O291        C297   1.272       .  A
O292       Ni310   1.908       .  S
O292        C294   1.269       .  A
Ni293       O296   1.921       .  S
Ni293       O298   1.896       .  S
C294        O304   1.274       .  A
C294        C950   1.485       .  S
O295       Ni311   1.914       .  S
O295        C301   1.267       .  A
O296        C301   1.267       .  A
C297        C854   1.494       .  S
O298        C300   1.272       .  A
O299       Ni310   1.922       .  S
C300        O306   1.280       .  A
C300        C533   1.498       .  S
C301        C350   1.483       .  S
H302        O303   0.966       .  S
O303       Ni311   1.901       .  S
O303       Ni305   1.906       .  S
O303       Ni310   1.912       .  S
O304       Ni305   1.936       .  S
Ni305       O309   1.912       .  S
Ni305       O307   1.914       .  S
O306       Ni311   1.955       .  S
C308        O309   1.267       .  A
C308        C374   1.499       .  S
C313        C314   1.401       .  A
C313        C318   1.399       .  A
C313        H323   1.084       .  S
C314        C319   1.475       .  S
C314        C315   1.412       .  A
C315        C316   1.397       .  A
C315        S320   1.806       .  S
C316        C317   1.403       .  A
C316        H321   1.082       .  S
C317        C318   1.414       .  A
C318        S322   1.803       .  S
C319        C324   1.404       .  A
C319        C328   1.402       .  A
S320        H336   1.404       .  S
S322        H333   1.407       .  S
C324        C325   1.397       .  A
C324        S329   1.808       .  S
C325        C326   1.410       .  A
C325        H330   1.082       .  S
C326        C327   1.418       .  A
C327        C328   1.403       .  A
C327        S331   1.801       .  S
C328        H332   1.084       .  S
S329        H334   1.407       .  S
S331        H335   1.407       .  S
C337        C338   1.401       .  A
C337        C342   1.400       .  A
C337        H347   1.084       .  S
C338        C343   1.478       .  S
C338        C339   1.412       .  A
C339        C340   1.401       .  A
C339        S344   1.804       .  S
C340        C341   1.404       .  A
C340        H345   1.084       .  S
C341        C342   1.415       .  A
C342        S346   1.804       .  S
C343        C348   1.410       .  A
C343        C352   1.397       .  A
S344        H360   1.404       .  S
S346        H357   1.407       .  S
C348        C349   1.408       .  A
C348        S353   1.805       .  S
C349        C350   1.406       .  A
C349        H354   1.083       .  S
C350        C351   1.418       .  A
C351        C352   1.395       .  A
C351        S355   1.803       .  S
C352        H356   1.084       .  S
S353        H358   1.407       .  S
S355        H359   1.406       .  S
C361        C362   1.401       .  A
C361        C366   1.398       .  A
C361        H371   1.084       .  S
C362        C367   1.479       .  S
C362        C363   1.413       .  A
C363        C364   1.402       .  A
C363        S368   1.804       .  S
C364        C365   1.404       .  A
C364        H369   1.084       .  S
C365        C366   1.415       .  A
C366        S370   1.805       .  S
C367        C372   1.404       .  A
C367        C376   1.401       .  A
S368        H384   1.405       .  S
S370        H381   1.407       .  S
C372        C373   1.400       .  A
C372        S377   1.809       .  S
C373        C374   1.414       .  A
C373        H378   1.081       .  S
C374        C375   1.421       .  A
C375        C376   1.403       .  A
C375        S379   1.802       .  S
C376        H380   1.084       .  S
S377        H382   1.406       .  S
S379        H383   1.408       .  S
C385        C386   1.405       .  A
C385        C390   1.397       .  A
C385        H395   1.084       .  S
C386        C391   1.478       .  S
C386        C387   1.412       .  A
C387        C388   1.396       .  A
C387        S392   1.804       .  S
C388        C389   1.402       .  A
C388        H393   1.084   1_554  S
C389        C390   1.410       .  A
C390        S394   1.804       .  S
C391        C396   1.409       .  A
C391        C400   1.403       .  A
S392        H408   1.406       .  S
S394        H405   1.406       .  S
C396        C397   1.401       .  A
C396        S401   1.807       .  S
C397        C398   1.404       .  A
C397        H402   1.083       .  S
C398        C399   1.409       .  A
C399        C400   1.395       .  A
C399        S403   1.799       .  S
C400        H404   1.084       .  S
S401        H406   1.407       .  S
S403        H407   1.406       .  S
C409        C410   1.405       .  A
C409        C414   1.403       .  A
C409        H419   1.084       .  S
C410        C415   1.485       .  S
C410        C411   1.411       .  A
C411        C412   1.397       .  A
C411        S416   1.804       .  S
C412        C413   1.405       .  A
C412        H417   1.083       .  S
C413        C414   1.415       .  A
C414        S418   1.802       .  S
C415        C420   1.409       .  A
C415        C424   1.405       .  A
S416        H432   1.406       .  S
S418        H429   1.407       .  S
C420        C421   1.402   1_556  A
C420        S425   1.807       .  S
C421        C422   1.407       .  A
C421        H426   1.083       .  S
C422        C423   1.413   1_554  A
C423        C424   1.402       .  A
C423        S427   1.802   1_556  S
C424        H428   1.084       .  S
S425        H430   1.407       .  S
S427        H431   1.406       .  S
C433        C434   1.402       .  A
C433        C438   1.402       .  A
C433        H443   1.084       .  S
C434        C439   1.480       .  S
C434        C435   1.411       .  A
C435        C436   1.397       .  A
C435        S440   1.805       .  S
C436        C437   1.404       .  A
C436        H441   1.082       .  S
C437        C438   1.418       .  A
C438        S442   1.803       .  S
C439        C444   1.405       .  A
C439        C448   1.401       .  A
S440        H456   1.405       .  S
S442        H453   1.407       .  S
C444        C445   1.399       .  A
C444        S449   1.809       .  S
C445        C446   1.413       .  A
C445        H450   1.082       .  S
C446        C447   1.421       .  A
C447        C448   1.403       .  A
C447        S451   1.802       .  S
C448        H452   1.084       .  S
S449        H454   1.407       .  S
S451        H455   1.407       .  S
C457        C458   1.402       .  A
C457        C462   1.393       .  A
C457        H467   1.084       .  S
C458        C463   1.484       .  S
C458        C459   1.414       .  A
C459        C460   1.405       .  A
C459        S464   1.803       .  S
C460        C461   1.405       .  A
C460        H465   1.084       .  S
C461        C462   1.414       .  A
C462        S466   1.803       .  S
C463        C468   1.411       .  A
C463        C472   1.403       .  A
S464        H480   1.406       .  S
S466        H477   1.402       .  S
C468        C469   1.402       .  A
C468        S473   1.808       .  S
C469        C470   1.404       .  A
C469        H474   1.083       .  S
C470        C471   1.414       .  A
C471        C472   1.401       .  A
C471        S475   1.803       .  S
C472        H476   1.084       .  S
S473        H478   1.407       .  S
S475        H479   1.406       .  S
C481        C482   1.403       .  A
C481        C486   1.404       .  A
C481        H491   1.083       .  S
C482        C487   1.483       .  S
C482        C483   1.412       .  A
C483        C484   1.400       .  A
C483        S488   1.804       .  S
C484        C485   1.404       .  A
C484        H489   1.084       .  S
C485        C486   1.411       .  A
C486        S490   1.807       .  S
C487        C492   1.410       .  A
C487        C496   1.402       .  A
S488        H504   1.406       .  S
S490        H501   1.406       .  S
C492        C493   1.402       .  A
C492        S497   1.808       .  S
C493        C494   1.404       .  A
C493        H498   1.083       .  S
C494        C495   1.416       .  A
C495        C496   1.403       .  A
C495        S499   1.799       .  S
C496        H500   1.084       .  S
S497        H502   1.407       .  S
S499        H503   1.406       .  S
C505        C506   1.400       .  A
C505        C510   1.396       .  A
C505        H515   1.084       .  S
C506        C511   1.483       .  S
C506        C507   1.414       .  A
C507        C508   1.403       .  A
C507        S512   1.804       .  S
C508        C509   1.405       .  A
C508        H513   1.084       .  S
C509        C510   1.416       .  A
C510        S514   1.805       .  S
C511        C516   1.409       .  A
C511        C520   1.403       .  A
S512        H528   1.405       .  S
S514        H525   1.407       .  S
C516        C517   1.401       .  A
C516        S521   1.809       .  S
C517        C518   1.408       .  A
C517        H522   1.082       .  S
C518        C519   1.418       .  A
C519        C520   1.403       .  A
C519        S523   1.802       .  S
C520        H524   1.084       .  S
S521        H526   1.406       .  S
S523        H527   1.407       .  S
C529        C530   1.403       .  A
C529        C534   1.406       .  A
C529        H539   1.084       .  S
C530        C535   1.484       .  S
C530        C531   1.411       .  A
C531        C532   1.394       .  A
C531        S536   1.807       .  S
C532        C533   1.410       .  A
C532        H537   1.083       .  S
C533        C534   1.422       .  A
C534        S538   1.800       .  S
C535        C540   1.412       .  A
C535        C544   1.402       .  A
S536        H552   1.406       .  S
S538        H549   1.408       .  S
C540        C541   1.408       .  A
C540        S545   1.805       .  S
C541        C542   1.405       .  A
C541        H546   1.083       .  S
C542        C543   1.412       .  A
C543        C544   1.395       .  A
C543        S547   1.805       .  S
C544        H548   1.084       .  S
S545        H550   1.407       .  S
S547        H551   1.407       .  S
C553        C554   1.400       .  A
C553        C558   1.399       .  A
C553        H563   1.084       .  S
C554        C559   1.482       .  S
C554        C555   1.412       .  A
C555        C556   1.401       .  A
C555        S560   1.804       .  S
C556        C557   1.408       .  A
C556        H561   1.084       .  S
C557        C558   1.420       .  A
C558        S562   1.803       .  S
C559        C564   1.409       .  A
C559        C568   1.405       .  A
S560        H576   1.405       .  S
S562        H573   1.408       .  S
C564        C565   1.400       .  A
C564        S569   1.807       .  S
C565        C566   1.403       .  A
C565        H570   1.083       .  S
C566        C567   1.413       .  A
C567        C568   1.403       .  A
C567        S571   1.804       .  S
C568        H572   1.084       .  S
S569        H574   1.407       .  S
S571        H575   1.406       .  S
C577        C578   1.401       .  A
C577        C582   1.400       .  A
C577        H587   1.084       .  S
C578        C583   1.482       .  S
C578        C579   1.414       .  A
C579        C580   1.401       .  A
C579        S584   1.805       .  S
C580        C581   1.404       .  A
C580        H585   1.084       .  S
C581        C582   1.417       .  A
C582        S586   1.803       .  S
C583        C588   1.408       .  A
C583        C592   1.403       .  A
S584        H600   1.405       .  S
S586        H597   1.406       .  S
C588        C589   1.401       .  A
C588        S593   1.807       .  S
C589        C590   1.407   1_554  A
C589        H594   1.083   1_554  S
C590        C591   1.416   1_556  A
C591        C592   1.403       .  A
C591        S595   1.799   1_554  S
C592        H596   1.084       .  S
S593        H598   1.406       .  S
S595        H599   1.407       .  S
C601        C602   1.404       .  A
C601        C606   1.399       .  A
C601        H611   1.084       .  S
C602        C607   1.485   1_455  S
C602        C603   1.412       .  A
C603        C604   1.399       .  A
C603        S608   1.803       .  S
C604        C605   1.406       .  A
C604        H609   1.084       .  S
C605        C606   1.414       .  A
C606        S610   1.800       .  S
C607        C612   1.412       .  A
C607        C616   1.401       .  A
S608        H624   1.406       .  S
S610        H621   1.405       .  S
C612        C613   1.403       .  A
C612        S617   1.807   1_655  S
C613        C614   1.405       .  A
C613        H618   1.083       .  S
C614        C615   1.418       .  A
C615        C616   1.399       .  A
C615        S619   1.800       .  S
C616        H620   1.084       .  S
S617        H622   1.407   1_455  S
S619        H623   1.407       .  S
C625        C626   1.403       .  A
C625        C630   1.402       .  A
C625        H635   1.084       .  S
C626        C631   1.484       .  S
C626        C627   1.412       .  A
C627        C628   1.400       .  A
C627        S632   1.805       .  S
C628        C629   1.407       .  A
C628        H633   1.084       .  S
C629        C630   1.416       .  A
C630        S634   1.803       .  S
C631        C636   1.410       .  A
C631        C640   1.399       .  A
S632        H648   1.405       .  S
S634        H645   1.407       .  S
C636        C637   1.406       .  A
C636        S641   1.806       .  S
C637        C638   1.408       .  A
C637        H642   1.082       .  S
C638        C639   1.420       .  A
C639        C640   1.399       .  A
C639        S643   1.803       .  S
C640        H644   1.084       .  S
S641        H646   1.407       .  S
S643        H647   1.408       .  S
C649        C650   1.401       .  A
C649        C654   1.401       .  A
C649        H659   1.084       .  S
C650        C655   1.481       .  S
C650        C651   1.414       .  A
C651        C652   1.400       .  A
C651        S656   1.805       .  S
C652        C653   1.403       .  A
C652        H657   1.084       .  S
C653        C654   1.415       .  A
C654        S658   1.801       .  S
C655        C660   1.406       .  A
C655        C664   1.401       .  A
S656        H672   1.406       .  S
S658        H669   1.406       .  S
C660        C661   1.402       .  A
C660        S665   1.808       .  S
C661        C662   1.411       .  A
C661        H666   1.082       .  S
C662        C663   1.420       .  A
C663        C664   1.402       .  A
C663        S667   1.801       .  S
C664        H668   1.084       .  S
S665        H670   1.407       .  S
S667        H671   1.405       .  S
C673        C674   1.396       .  A
C673        C678   1.394       .  A
C673        H683   1.084       .  S
C674        C679   1.477       .  S
C674        C675   1.413       .  A
C675        C676   1.404       .  A
C675        S680   1.803       .  S
C676        C677   1.405       .  A
C676        H681   1.083       .  S
C677        C678   1.419       .  A
C678        S682   1.801       .  S
C679        C684   1.407       .  A
C679        C688   1.400       .  A
S680        H696   1.405       .  S
S682        H693   1.403       .  S
C684        C685   1.402       .  A
C684        S689   1.807       .  S
C685        C686   1.408       .  A
C685        H690   1.083       .  S
C686        C687   1.417       .  A
C687        C688   1.400       .  A
C687        S691   1.800       .  S
C688        H692   1.084       .  S
S689        H694   1.407       .  S
S691        H695   1.407       .  S
C697        C698   1.405       .  A
C697        C702   1.405       .  A
C697        H707   1.084   1_655  S
C698        C703   1.480   1_655  S
C698        C699   1.410       .  A
C699        C700   1.394       .  A
C699        S704   1.805       .  S
C700        C701   1.405       .  A
C700        H705   1.085       .  S
C701        C702   1.413       .  A
C702        S706   1.802       .  S
C703        C708   1.406       .  A
C703        C712   1.401       .  A
S704        H720   1.405   1_655  S
S706        H717   1.407       .  S
C708        C709   1.398       .  A
C708        S713   1.809       .  S
C709        C710   1.411       .  A
C709        H714   1.082       .  S
C710        C711   1.421       .  A
C711        C712   1.405       .  A
C711        S715   1.801       .  S
C712        H716   1.084       .  S
S713        H718   1.407       .  S
S715        H719   1.407   1_554  S
C721        C722   1.402       .  A
C721        C726   1.402       .  A
C721        H731   1.084       .  S
C722        C727   1.485       .  S
C722        C723   1.412       .  A
C723        C724   1.399       .  A
C723        S728   1.804       .  S
C724        C725   1.407       .  A
C724        H729   1.083       .  S
C725        C726   1.419       .  A
C726        S730   1.803       .  S
C727        C732   1.411       .  A
C727        C736   1.400       .  A
S728        H744   1.406       .  S
S730        H741   1.408       .  S
C732        C733   1.405       .  A
C732        S737   1.807       .  S
C733        C734   1.406       .  A
C733        H738   1.083       .  S
C734        C735   1.421       .  A
C735        C736   1.400       .  A
C735        S739   1.804       .  S
C736        H740   1.084       .  S
S737        H742   1.407       .  S
S739        H743   1.407       .  S
C745        C746   1.401       .  A
C745        C750   1.399       .  A
C745        H755   1.084       .  S
C746        C751   1.479   1_565  S
C746        C747   1.411       .  A
C747        C748   1.399       .  A
C747        S752   1.805       .  S
C748        C749   1.409       .  A
C748        H753   1.083       .  S
C749        C750   1.417       .  A
C750        S754   1.801       .  S
C751        C756   1.410       .  A
C751        C760   1.400       .  A
S752        H768   1.406       .  S
S754        H765   1.406       .  S
C756        C757   1.403       .  A
C756        S761   1.807   1_545  S
C757        C758   1.405       .  A
C757        H762   1.083       .  S
C758        C759   1.414       .  A
C759        C760   1.398       .  A
C759        S763   1.798       .  S
C760        H764   1.084       .  S
S761        H766   1.407       .  S
S763        H767   1.407       .  S
C769        C770   1.399       .  A
C769        C774   1.396       .  A
C769        H779   1.084       .  S
C770        C775   1.470       .  S
C770        C771   1.409       .  A
C771        C772   1.397       .  A
C771        S776   1.806       .  S
C772        C773   1.407       .  A
C772        H777   1.084       .  S
C773        C774   1.417       .  A
C774        S778   1.804       .  S
C775        C780   1.406       .  A
C775        C784   1.399       .  A
S776        H792   1.404       .  S
S778        H789   1.408       .  S
C780        C781   1.400       .  A
C780        S785   1.807       .  S
C781        C782   1.406       .  A
C781        H786   1.083       .  S
C782        C783   1.414       .  A
C783        C784   1.398       .  A
C783        S787   1.800       .  S
C784        H788   1.084       .  S
S785        H790   1.406   1_556  S
S787        H791   1.407       .  S
C793        C794   1.404       .  A
C793        C798   1.401       .  A
C793        H803   1.084       .  S
C794        C799   1.488       .  S
C794        C795   1.414       .  A
C795        C796   1.404       .  A
C795        S800   1.803       .  S
C796        C797   1.405       .  A
C796        H801   1.084       .  S
C797        C798   1.412       .  A
C798        S802   1.804       .  S
C799        C804   1.411       .  A
C799        C808   1.402       .  A
S800        H816   1.406       .  S
S802        H813   1.407       .  S
C804        C805   1.405       .  A
C804        S809   1.808       .  S
C805        C806   1.406       .  A
C805        H810   1.083       .  S
C806        C807   1.418       .  A
C807        C808   1.404       .  A
C807        S811   1.800       .  S
C808        H812   1.084       .  S
S809        H814   1.406   1_556  S
S811        H815   1.405       .  S
C817        C818   1.402   1_545  A
C817        C822   1.400       .  A
C817        H827   1.084       .  S
C818        C823   1.482       .  S
C818        C819   1.413   1_565  A
C819        C820   1.400       .  A
C819        S824   1.805   1_545  S
C820        C821   1.406       .  A
C820        H825   1.084       .  S
C821        C822   1.414       .  A
C822        S826   1.799       .  S
C823        C828   1.408       .  A
C823        C832   1.399       .  A
S824        H840   1.405       .  S
S826        H837   1.407       .  S
C828        C829   1.404       .  A
C828        S833   1.807       .  S
C829        C830   1.411       .  A
C829        H834   1.082       .  S
C830        C831   1.422       .  A
C831        C832   1.399       .  A
C831        S835   1.802       .  S
C832        H836   1.084       .  S
S833        H838   1.407       .  S
S835        H839   1.406       .  S
C841        C842   1.403       .  A
C841        C846   1.403       .  A
C841        H851   1.084       .  S
C842        C847   1.490       .  S
C842        C843   1.413       .  A
C843        C844   1.401       .  A
C843        S848   1.805       .  S
C844        C845   1.409       .  A
C844        H849   1.083       .  S
C845        C846   1.421       .  A
C846        S850   1.802       .  S
C847        C852   1.412       .  A
C847        C856   1.402       .  A
S848        H864   1.406       .  S
S850        H861   1.408       .  S
C852        C853   1.406       .  A
C852        S857   1.807       .  S
C853        C854   1.407       .  A
C853        H858   1.082       .  S
C854        C855   1.421       .  A
C855        C856   1.402       .  A
C855        S859   1.803       .  S
C856        H860   1.084       .  S
S857        H862   1.407       .  S
S859        H863   1.408       .  S
C865        C866   1.403       .  A
C865        C870   1.397       .  A
C865        H875   1.084       .  S
C866        C871   1.475       .  S
C866        C867   1.411       .  A
C867        C868   1.399       .  A
C867        S872   1.804       .  S
C868        C869   1.403       .  A
C868        H873   1.084       .  S
C869        C870   1.410       .  A
C870        S874   1.805       .  S
C871        C876   1.407       .  A
C871        C880   1.401       .  A
S872        H888   1.403       .  S
S874        H885   1.407       .  S
C876        C877   1.397       .  A
C876        S881   1.809       .  S
C877        C878   1.407       .  A
C877        H882   1.083       .  S
C878        C879   1.418       .  A
C879        C880   1.401       .  A
C879        S883   1.800       .  S
C880        H884   1.084       .  S
S881        H886   1.407       .  S
S883        H887   1.407       .  S
C889        C890   1.399       .  A
C889        C894   1.396       .  A
C889        H899   1.084       .  S
C890        C895   1.473       .  S
C890        C891   1.412       .  A
C891        C892   1.399       .  A
C891        S896   1.804       .  S
C892        C893   1.403       .  A
C892        H897   1.084       .  S
C893        C894   1.415       .  A
C894        S898   1.803       .  S
C895        C900   1.405       .  A
C895        C904   1.399       .  A
S896        H912   1.405       .  S
S898        H909   1.406       .  S
C900        C901   1.401       .  A
C900        S905   1.807       .  S
C901        C902   1.408       .  A
C901        H906   1.083       .  S
C902        C903   1.419       .  A
C903        C904   1.398       .  A
C903        S907   1.801       .  S
C904        H908   1.084       .  S
S905        H910   1.406       .  S
S907        H911   1.406       .  S
C913        C914   1.401       .  A
C913        C918   1.399       .  A
C913        H923   1.084       .  S
C914        C919   1.479       .  S
C914        C915   1.413       .  A
C915        C916   1.401       .  A
C915        S920   1.804       .  S
C916        C917   1.402       .  A
C916        H921   1.081       .  S
C917        C918   1.413       .  A
C918        S922   1.803       .  S
C919        C924   1.410       .  A
C919        C928   1.398       .  A
S920        H936   1.405       .  S
S922        H933   1.407       .  S
C924        C925   1.407       .  A
C924        S929   1.806       .  S
C925        C926   1.406   1_554  A
C925        H930   1.083   1_554  S
C926        C927   1.418   1_556  A
C927        C928   1.396       .  A
C927        S931   1.804   1_554  S
C928        H932   1.084       .  S
S929        H934   1.407       .  S
S931        H935   1.407       .  S
C937        C938   1.402       .  A
C937        C942   1.400       .  A
C937        H947   1.084       .  S
C938        C943   1.481   1_455  S
C938        C939   1.412       .  A
C939        C940   1.402       .  A
C939        S944   1.805       .  S
C940        C941   1.406       .  A
C940        H945   1.084       .  S
C941        C942   1.414       .  A
C942        S946   1.800       .  S
C943        C948   1.409       .  A
C943        C952   1.399       .  A
S944        H960   1.404       .  S
S946        H957   1.407       .  S
C948        C949   1.405       .  A
C948        S953   1.806   1_655  S
C949        C950   1.406       .  A
C949        H954   1.083       .  S
C950        C951   1.418       .  A
C951        C952   1.400       .  A
C951        S955   1.800       .  S
C952        H956   1.084       .  S
S953        H958   1.407   1_455  S
S955        H959   1.407       .  S
C961        C962   1.401       .  A
C961        C966   1.403       .  A
C961        H971   1.084       .  S
C962        C967   1.481   1_565  S
C962        C963   1.409       .  A
C963        C964   1.398       .  A
C963        S968   1.804       .  S
C964        C965   1.410       .  A
C964        H969   1.082       .  S
C965        C966   1.421       .  A
C966        S970   1.801       .  S
C967        C972   1.408       .  A
C967        C976   1.403       .  A
S968        H984   1.405       .  S
S970        H981   1.408       .  S
C972        C973   1.400       .  A
C972        S977   1.808       .  S
C973        C974   1.406       .  A
C973        H978   1.083       .  S
C974        C975   1.415       .  A
C975        C976   1.404       .  A
C975        S979   1.803       .  S
C976        H980   1.084       .  S
S977        H982   1.407       .  S
S979        H983   1.407       .  S
C985        C986   1.401       .  A
C985        C990   1.394       .  A
C985        H995   1.084       .  S
C986        C991   1.484       .  S
C986        C987   1.415       .  A
C987        C988   1.404       .  A
C987        S992   1.804       .  S
C988        C989   1.405       .  A
C988        H993   1.084       .  S
C989        C990   1.415       .  A
C990        S994   1.805       .  S
C991        C996   1.411       .  A
C991       C1000   1.403       .  A
S992       H1008   1.405       .  S
S994       H1005   1.407       .  S
C996        C997   1.402       .  A
C996       S1001   1.809       .  S
C997        C998   1.407       .  A
C997       H1002   1.083       .  S
C998        C999   1.417       .  A
C999       C1000   1.401       .  A
C999       S1003   1.801       .  S
C1000      H1004   1.084       .  S
S1001      H1006   1.406       .  S
S1003      H1007   1.407       .  S
C1009      C1010   1.403       .  A
C1009      C1014   1.402       .  A
C1009      H1019   1.084       .  S
C1010      C1015   1.477       .  S
C1010      C1011   1.411       .  A
C1011      C1012   1.394       .  A
C1011      S1016   1.806       .  S
C1012      C1013   1.405       .  A
C1012      H1017   1.084       .  S
C1013      C1014   1.415       .  A
C1014      S1018   1.801       .  S
C1015      C1020   1.411       .  A
C1015      C1024   1.398       .  A
S1016      H1032   1.406       .  S
S1018      H1029   1.406       .  S
C1020      C1021   1.403       .  A
C1020      S1025   1.807       .  S
C1021      C1022   1.406       .  A
C1021      H1026   1.083       .  S
C1022      C1023   1.417       .  A
C1023      C1024   1.396       .  A
C1023      S1027   1.804       .  S
C1024      H1028   1.084       .  S
S1025      H1030   1.406       .  S
S1027      H1031   1.407       .  S
C1033      C1034   1.403       .  A
C1033      C1038   1.401       .  A
C1033      H1043   1.084       .  S
C1034      C1039   1.488   1_455  S
C1034      C1035   1.413       .  A
C1035      C1036   1.401       .  A
C1035      S1040   1.804       .  S
C1036      C1037   1.407       .  A
C1036      H1041   1.084       .  S
C1037      C1038   1.418       .  A
C1038      S1042   1.800       .  S
C1039      C1044   1.410       .  A
C1039      C1048   1.404       .  A
S1040      H1056   1.406   1_455  S
S1042      H1053   1.408       .  S
C1044      C1045   1.403       .  A
C1044      S1049   1.807       .  S
C1045      C1046   1.406       .  A
C1045      H1050   1.082       .  S
C1046      C1047   1.416       .  A
C1047      C1048   1.402       .  A
C1047      S1051   1.801   1_554  S
C1048      H1052   1.084   1_655  S
S1049      H1054   1.406       .  S
S1051      H1055   1.406       .  S
C1057      C1058   1.404       .  A
C1057      C1062   1.406       .  A
C1057      H1067   1.084       .  S
C1058      C1063   1.484   1_545  S
C1058      C1059   1.409       .  A
C1059      C1060   1.396       .  A
C1059      S1064   1.805       .  S
C1060      C1061   1.411       .  A
C1060      H1065   1.083       .  S
C1061      C1062   1.420       .  A
C1062      S1066   1.801       .  S
C1063      C1068   1.410       .  A
C1063      C1072   1.401       .  A
S1064      H1080   1.406   1_545  S
S1066      H1077   1.407       .  S
C1068      C1069   1.408       .  A
C1068      S1073   1.805       .  S
C1069      C1070   1.408       .  A
C1069      H1074   1.083       .  S
C1070      C1071   1.416       .  A
C1071      C1072   1.398       .  A
C1071      S1075   1.803       .  S
C1072      H1076   1.084   1_565  S
S1073      H1078   1.407       .  S
S1075      H1079   1.408       .  S
C1081      C1082   1.401       .  A
C1081      C1086   1.403       .  A
C1081      H1091   1.084       .  S
C1082      C1087   1.480       .  S
C1082      C1083   1.410       .  A
C1083      C1084   1.395       .  A
C1083      S1088   1.807       .  S
C1084      C1085   1.412       .  A
C1084      H1089   1.083       .  S
C1085      C1086   1.420       .  A
C1086      S1090   1.794       .  S
C1087      C1092   1.409       .  A
C1087      C1096   1.402       .  A
S1088      H1104   1.405       .  S
S1090      H1101   1.407       .  S
C1092      C1093   1.402       .  A
C1092      S1097   1.807       .  S
C1093      C1094   1.406       .  A
C1093      H1098   1.083       .  S
C1094      C1095   1.414       .  A
C1095      C1096   1.402       .  A
C1095      S1099   1.809       .  S
C1096      H1100   1.083       .  S
S1097      H1102   1.407       .  S
S1099      H1103   1.406       .  S
C1105      C1106   1.405       .  A
C1105      C1110   1.401       .  A
C1105      H1115   1.084       .  S
C1106      C1111   1.486       .  S
C1106      C1107   1.411       .  A
C1107      C1108   1.400       .  A
C1107      S1112   1.804       .  S
C1108      C1109   1.406       .  A
C1108      H1113   1.084   1_554  S
C1109      C1110   1.414       .  A
C1110      S1114   1.799       .  S
C1111      C1116   1.409       .  A
C1111      C1120   1.404       .  A
S1112      H1128   1.407       .  S
S1114      H1125   1.407       .  S
C1116      C1117   1.403       .  A
C1116      S1121   1.807       .  S
C1117      C1118   1.407       .  A
C1117      H1122   1.083       .  S
C1118      C1119   1.414       .  A
C1119      C1120   1.399       .  A
C1119      S1123   1.800       .  S
C1120      H1124   1.084       .  S
S1121      H1126   1.407       .  S
S1123      H1127   1.407       .  S
C1129      C1130   1.405       .  A
C1129      C1134   1.403   1_556  A
C1129      H1139   1.084       .  S
C1130      C1135   1.483       .  S
C1130      C1131   1.410       .  A
C1131      C1132   1.398   1_556  A
C1131      S1136   1.804       .  S
C1132      C1133   1.407       .  A
C1132      H1137   1.084       .  S
C1133      C1134   1.414       .  A
C1134      S1138   1.802       .  S
C1135      C1140   1.409       .  A
C1135      C1144   1.403       .  A
S1136      H1152   1.406       .  S
S1138      H1149   1.407       .  S
C1140      C1141   1.402       .  A
C1140      S1145   1.807       .  S
C1141      C1142   1.406       .  A
C1141      H1146   1.082       .  S
C1142      C1143   1.415       .  A
C1143      C1144   1.402       .  A
C1143      S1147   1.803       .  S
C1144      H1148   1.084       .  S
S1145      H1150   1.407       .  S
S1147      H1151   1.407       .  S
C1153      C1154   1.399       .  A
C1153      C1158   1.398       .  A
C1153      H1163   1.084       .  S
C1154      C1159   1.481       .  S
C1154      C1155   1.413       .  A
C1155      C1156   1.403       .  A
C1155      S1160   1.804       .  S
C1156      C1157   1.406       .  A
C1156      H1161   1.084       .  S
C1157      C1158   1.420       .  A
C1158      S1162   1.803       .  S
C1159      C1164   1.409       .  A
C1159      C1168   1.399       .  A
S1160      H1176   1.405       .  S
S1162      H1173   1.404       .  S
C1164      C1165   1.406       .  A
C1164      S1169   1.806       .  S
C1165      C1166   1.407       .  A
C1165      H1170   1.083       .  S
C1166      C1167   1.417       .  A
C1167      C1168   1.398       .  A
C1167      S1171   1.803       .  S
C1168      H1172   1.084       .  S
S1169      H1174   1.407       .  S
S1171      H1175   1.407       .  S
