geometry optimzed in LAMMPS
_audit_creation_date              2020-11-30 
_audit_creation_method            'lammps2cif' 
_symmetry_space_group_name_H-M    'P1' 
_symmetry_Int_Tables_number       1 
_symmetry_cell_setting            triclinic 
loop_ 
_symmetry_equiv_pos_as_xyz 
  x,y,z 
_cell_length_a                    26.98715425 
_cell_length_b                    26.978375110890966 
_cell_length_c                    36.03529085902857 
_cell_angle_alpha                 90.02108043539968 
_cell_angle_beta                  90.40206477219346 
_cell_angle_gamma                 90.32480695085628 
loop_ 
_atom_site_label 
_atom_site_type_symbol 
_atom_site_fract_x 
_atom_site_fract_y 
_atom_site_fract_z 
_atom_site_charge 
O1          O  0.49013283  0.80824774  0.43399919    -0.71200
O2          O  0.50818943  0.77827195  0.04120106    -0.72200
O3          O  0.43527237  0.77954363  0.98355883    -0.60800
O4          O  0.56323775  0.81635899  0.49049253    -0.69200
O5          O  0.55296124  0.89791399  0.49340040    -0.68800
O6          O  0.42701165  0.86059524  0.99234562    -0.60000
O7          O  0.50048828  0.85951707  0.04873030    -0.72500
O8          O  0.47949453  0.88971804  0.43635057    -0.71300
Cu9        Cu  0.50954101  0.78442739  0.98557416     1.04600
Cu10       Cu  0.47886642  0.89076407  0.49227127     1.04300
C11         C  0.48511776  0.84992183  0.41760621     0.95000
C12         C  0.50421422  0.81595224  0.06241986     0.94100
C13         C  0.38739736  0.83423370  0.49045150     0.86300
C14         C  0.60221946  0.83822700  0.99229646     0.92500
O15         O  0.56714757  0.87649540  0.24733557    -0.71200
O16         O  0.41910851  0.86115416  0.24161922    -0.72200
O17         O  0.49054626  0.86164182  0.29901120    -0.60800
O18         O  0.49549686  0.87694589  0.18861543    -0.69200
O19         O  0.50353198  0.79563272  0.18170982    -0.68800
O20         O  0.49910269  0.78026873  0.29318005    -0.60000
O21         O  0.42758537  0.77989062  0.23417940    -0.72500
O22         O  0.57540228  0.79528112  0.23950901    -0.71300
Cu23       Cu  0.49281580  0.87186243  0.24425800     1.04600
Cu24       Cu  0.50172436  0.78485442  0.23697055     1.04300
C25         C  0.59449310  0.83822650  0.24448792     0.95000
C26         C  0.40014531  0.81803242  0.23711990     0.94100
C27         C  0.49400686  0.81870375  0.31362246     0.86300
C28         C  0.49998115  0.83902942  0.16769857     0.92500
O29         O  0.81839233  0.48881188  0.05064243    -0.71200
O30         O  0.76817705  0.50652550  0.44270887    -0.72200
O31         O  0.76701084  0.43794488  0.50267704    -0.60800
O32         O  0.82350644  0.56336673  0.99475262    -0.69200
O33         O  0.90576538  0.56146566  0.99375311    -0.68800
O34         O  0.90198813  0.41327759  0.00102394    -0.60000
O35         O  0.84980417  0.49903928  0.43844894    -0.72500
O36         O  0.90057664  0.49169180  0.05288644    -0.71300
Cu37       Cu  0.77129352  0.51222952  0.49823706     1.04600
Cu38       Cu  0.90660161  0.48734775  0.99754067     1.04300
C39         C  0.85881698  0.49094111  0.06934331     0.95000
C40         C  0.80695152  0.50096505  0.42308960     0.94100
C41         C  0.86067646  0.39026063  0.99836058     0.86300
C42         C  0.86534321  0.58575812  0.99334949     0.92500
O43         O  0.86258644  0.49719890  0.18804922    -0.71200
O44         O  0.87362144  0.49609335  0.29887191    -0.72200
O45         O  0.87704052  0.42300844  0.24168140    -0.60800
O46         O  0.85851813  0.57031001  0.24413983    -0.69200
O47         O  0.77709924  0.55986939  0.24888596    -0.68800
O48         O  0.79578101  0.41233439  0.24761792    -0.60000
O49         O  0.79216037  0.48657212  0.30362475    -0.72500
O50         O  0.78125496  0.48608197  0.19157631    -0.71300
Cu51       Cu  0.87069821  0.49702011  0.24311852     1.04600
Cu52       Cu  0.78363207  0.48578926  0.24801781     1.04300
C53         C  0.82050336  0.49138625  0.17218352     0.95000
C54         C  0.83487505  0.49186635  0.31878332     0.94100
C55         C  0.83926836  0.39454813  0.24403037     0.86300
C56         C  0.81499244  0.58825811  0.24706626     0.92500
O57         O  0.49892474  0.11854468  0.06319192    -0.71200
O58         O  0.49663265  0.15540302  0.45098838    -0.72200
O59         O  0.56907159  0.15099952  0.50744076    -0.60800
O60         O  0.42874506  0.11828357  0.00327851    -0.69200
O61         O  0.42175178  0.19975771  0.01008833    -0.68800
O62         O  0.56138514  0.23168554  0.51806755    -0.60000
O63         O  0.48784024  0.23608273  0.46065287    -0.72500
O64         O  0.49262465  0.20026493  0.06818534    -0.71300
Cu65       Cu  0.49550174  0.14041615  0.50524495     1.04600
Cu66       Cu  0.49597304  0.20899257  0.01334255     1.04300
C67         C  0.49479458  0.15749043  0.08318476     0.95000
C68         C  0.49305723  0.19951658  0.43843344     0.94100
C69         C  0.58851875  0.19362288  0.51324845     0.86300
C70         C  0.39364436  0.17309455  0.50809216     0.92500
O71         O  0.49902206  0.13734521  0.31333677    -0.71200
O72         O  0.49409670  0.14645098  0.20258308    -0.72200
O73         O  0.57123900  0.14269865  0.25624505    -0.60800
O74         O  0.42192963  0.14212323  0.25916314    -0.69200
O75         O  0.42283944  0.22386010  0.26672610    -0.68800
O76         O  0.57059336  0.22499989  0.25755816    -0.60000
O77         O  0.49085393  0.22847876  0.20660548    -0.72500
O78         O  0.50199002  0.21935146  0.31817129    -0.71300
Cu79       Cu  0.49658527  0.13927630  0.25779373     1.04600
Cu80       Cu  0.49664675  0.22706657  0.26245791     1.04300
C81         C  0.50094595  0.17644086  0.33326793     0.95000
C82         C  0.49151877  0.18890152  0.18707226     0.94100
C83         C  0.59419049  0.18428117  0.25516789     0.86300
C84         C  0.39907832  0.18304536  0.26376957     0.92500
O85         O  0.22620871  0.58721378  0.49557133    -0.71200
O86         O  0.22308255  0.43802971  0.49558697    -0.72200
O87         O  0.21388962  0.51277661  0.44104243    -0.60800
O88         O  0.21261150  0.49586495  0.05279853    -0.69200
O89         O  0.13130884  0.48748636  0.05979721    -0.68800
O90         O  0.13258630  0.51377959  0.44996072    -0.60000
O91         O  0.14199010  0.43910083  0.50561303    -0.72500
O92         O  0.14502088  0.58841047  0.50498251    -0.71300
Cu93       Cu  0.22763015  0.51251033  0.49579635     1.04600
Cu94       Cu  0.14070316  0.51377410  0.50546780     1.04300
C95         C  0.18594762  0.61129021  0.49949381     0.95000
C96         C  0.18212270  0.41513525  0.50060881     0.94100
C97         C  0.16967507  0.51313485  0.42813643     0.86300
C98         C  0.17489630  0.49082164  0.07368956     0.92500
O99         O  0.14348466  0.50754322  0.31036756    -0.71200
O100        O  0.11789363  0.49539570  0.20086835    -0.72200
O101        O  0.12291925  0.42790551  0.26183137    -0.60800
O102        O  0.13862568  0.57494737  0.25052611    -0.69200
O103        O  0.21907928  0.56580852  0.23998164    -0.68800
O104        O  0.20319542  0.41839530  0.25072783    -0.60000
O105        O  0.19856682  0.48674414  0.19135349    -0.72500
O106        O  0.22404189  0.49811556  0.30074536    -0.71300
Cu107      Cu  0.12790236  0.50174509  0.25618999     1.04600
Cu108      Cu  0.21406786  0.49187791  0.24544726     1.04300
C109        C  0.18780010  0.50461590  0.32282722     0.95000
C110        C  0.15432019  0.48987915  0.17880420     0.94100
C111        C  0.16057779  0.40004199  0.25795715     0.86300
C112        C  0.18118767  0.59348475  0.24340694     0.92500
O113        O  0.89709114  0.83663470  0.47320106    -0.71200
O114        O  0.74988287  0.83455119  0.45477852    -0.72200
O115        O  0.82501899  0.90954384  0.45641659    -0.60800
O116        O  0.82208486  0.76228224  0.47118878    -0.69200
O117        O  0.82947018  0.75202282  0.03066879    -0.68800
O118        O  0.83379088  0.89979143  0.01717151    -0.60000
O119        O  0.75854509  0.82645093  0.01549717    -0.72500
O120        O  0.90587266  0.82593144  0.03223580    -0.71300
Cu121      Cu  0.82402543  0.83541700  0.46177479     1.04600
Cu122      Cu  0.83158859  0.82639640  0.02603825     1.04300
C123        C  0.93482985  0.82347219  0.00439672     0.95000
C124        C  0.74124406  0.81778482  0.98302971     0.94100
C125        C  0.83745532  0.91789493  0.98452780     0.86300
C126        C  0.83764774  0.72375247  0.00297400     0.92500
O127        O  0.82447681  0.89399213  0.27888640    -0.71200
O128        O  0.82487894  0.74631503  0.26702971    -0.72200
O129        O  0.89834742  0.82021456  0.28116925    -0.60800
O130        O  0.75113388  0.82094806  0.26489082    -0.69200
O131        O  0.76245057  0.82460793  0.20395217    -0.68800
O132        O  0.90946814  0.83187454  0.22080315    -0.60000
O133        O  0.84101010  0.75496365  0.20699449    -0.72500
O134        O  0.83230219  0.90284751  0.21794497    -0.71300
Cu135      Cu  0.82424104  0.82005045  0.27510343     1.04600
Cu136      Cu  0.83658296  0.82896666  0.21026369     1.04300
C137        C  0.82823059  0.92170284  0.25035175     0.95000
C138        C  0.83411978  0.72744457  0.23529697     0.94100
C139        C  0.92710785  0.82632367  0.25353588     0.86300
C140        C  0.73364743  0.82210624  0.23187274     0.92500
O141        O  0.90760798  0.15963032  0.02304667    -0.71200
O142        O  0.75834739  0.16136095  0.02410232    -0.72200
O143        O  0.83224942  0.08657263  0.03022205    -0.60800
O144        O  0.83453190  0.23417698  0.01720001    -0.69200
O145        O  0.82434048  0.24513288  0.45659642    -0.68800
O146        O  0.82361005  0.09699915  0.46889124    -0.60000
O147        O  0.74943729  0.16999139  0.46252177    -0.72500
O148        O  0.89783614  0.17128253  0.46225233    -0.71300
Cu149      Cu  0.83319290  0.16081481  0.02578304     1.04600
Cu150      Cu  0.82371693  0.17061064  0.46042895     1.04300
C151        C  0.93034130  0.15684792  0.99209662     0.95000
C152        C  0.73443555  0.15311009  0.99393766     0.94100
C153        C  0.83380634  0.05836985  0.00178787     0.86300
C154        C  0.83114298  0.25277882  0.98469909     0.92500
O155        O  0.82355992  0.23828463  0.22440002    -0.71200
O156        O  0.82232743  0.09151643  0.20683529    -0.72200
O157        O  0.74903816  0.16365473  0.22441222    -0.60800
O158        O  0.89649430  0.16677909  0.20732226    -0.69200
O159        O  0.90831197  0.15791642  0.26794627    -0.68800
O160        O  0.76166071  0.14617174  0.28395675    -0.60000
O161        O  0.83771428  0.07918685  0.26670887    -0.72500
O162        O  0.83077682  0.22581966  0.28512443    -0.71300
Cu163      Cu  0.82239377  0.16549730  0.21361799     1.04600
Cu164      Cu  0.83522446  0.15187677  0.27802811     1.04300
C165        C  0.82635770  0.25511890  0.25748033     0.95000
C166        C  0.82996428  0.06217548  0.23404610     0.94100
C167        C  0.73225989  0.15382603  0.25672786     0.86300
C168        C  0.92568746  0.16337971  0.23524293     0.92500
O169        O  0.08268654  0.18045340  0.49206242    -0.71200
O170        O  0.23259818  0.18119252  0.49519184    -0.72200
O171        O  0.15735091  0.10622375  0.49306700    -0.60800
O172        O  0.15826881  0.25553178  0.49320148    -0.69200
O173        O  0.15734543  0.23806026  0.05173221    -0.68800
O174        O  0.17066040  0.08993442  0.05640069    -0.60000
O175        O  0.23874395  0.17198521  0.05504118    -0.72500
O176        O  0.09054875  0.15772084  0.05308934    -0.71300
Cu177      Cu  0.15779183  0.18081947  0.49117470     1.04600
Cu178      Cu  0.16444852  0.16442137  0.05619462     1.04300
C179        C  0.05865837  0.17877364  0.52258031     0.95000
C180        C  0.25455346  0.18537115  0.52664047     0.94100
C181        C  0.15776202  0.08307441  0.52398914     0.86300
C182        C  0.15461818  0.27934266  0.52373843     0.92500
O183        O  0.16621482  0.09355547  0.28493650    -0.71200
O184        O  0.16736404  0.24158469  0.27402833    -0.72200
O185        O  0.09298653  0.16811498  0.28313929    -0.60800
O186        O  0.24084469  0.16711743  0.27624901    -0.69200
O187        O  0.23558511  0.15476591  0.21540666    -0.68800
O188        O  0.08647466  0.16276340  0.22182322    -0.60000
O189        O  0.16574171  0.23309961  0.21272383    -0.72500
O190        O  0.15788748  0.08540477  0.22388637    -0.71300
Cu191      Cu  0.16699302  0.16789935  0.28169030     1.04600
Cu192      Cu  0.16108653  0.15882399  0.21626327     1.04300
C193        C  0.16184077  0.06618849  0.25615269     0.95000
C194        C  0.16786737  0.26058625  0.24155421     0.94100
C195        C  0.06633237  0.16569923  0.25381646     0.86300
C196        C  0.26155772  0.16008859  0.24492912     0.92500
O197        O  0.15829559  0.76869711  0.47594911    -0.71200
O198        O  0.15673284  0.91847937  0.46724749    -0.72200
O199        O  0.23044968  0.84458808  0.47728480    -0.60800
O200        O  0.08342059  0.84151596  0.46441062    -0.69200
O201        O  0.09398669  0.82670659  0.02073045    -0.68800
O202        O  0.24220709  0.83041859  0.03370209    -0.60000
O203        O  0.16698197  0.90318242  0.02847828    -0.72500
O204        O  0.16913630  0.75317117  0.02550633    -0.71300
Cu205      Cu  0.15743281  0.84314065  0.46908381     1.04600
Cu206      Cu  0.16770036  0.82822437  0.02933662     1.04300
C207        C  0.15295775  0.74887919  0.50794815     0.95000
C208        C  0.15285791  0.94470886  0.49670588     0.94100
C209        C  0.24954724  0.84867811  0.50961857     0.86300
C210        C  0.05498316  0.84397595  0.49247974     0.92500
O211        O  0.08584392  0.83283085  0.26937298    -0.71200
O212        O  0.23399249  0.83732351  0.28158497    -0.72200
O213        O  0.15924682  0.90814064  0.26896320    -0.60800
O214        O  0.15953191  0.76113997  0.28250092    -0.69200
O215        O  0.16940528  0.75076527  0.22183520    -0.68800
O216        O  0.16815268  0.89863586  0.20817703    -0.60000
O217        O  0.24243156  0.82620651  0.22087862    -0.72500
O218        O  0.09499959  0.82287420  0.20863527    -0.71300
Cu219      Cu  0.15945351  0.83511667  0.27774631     1.04600
Cu220      Cu  0.16908051  0.82423796  0.21274831     1.04300
C221        C  0.06717282  0.82736032  0.23691825     0.95000
C222        C  0.26146043  0.83280471  0.25305544     0.94100
C223        C  0.16346955  0.92664987  0.23652624     0.86300
C224        C  0.16402278  0.73280214  0.25438720     0.92500
C225        C  0.16290904  0.98083261  0.23155168    -0.14700
C226        C  0.16165351  0.01197754  0.26066525    -0.29900
H227        H  0.16413534  0.99534224  0.20344581     0.14300
H228        H  0.16149202  0.99740211  0.28877289     0.14900
C229        C  0.15662432  0.02822681  0.52501332    -0.14700
C230        C  0.15474836  0.99957470  0.49432247    -0.29900
H231        H  0.15677431  0.01089047  0.55222483     0.14300
H232        H  0.17058212  0.99965571  0.97030476     0.14900
C233        C  0.97989758  0.16537467  0.22938680    -0.14700
C234        C  0.01196151  0.16557819  0.25808907    -0.29900
H235        H  0.99358521  0.16648246  0.20111557     0.14300
H236        H  0.99788368  0.16523229  0.28627097     0.14900
C237        C  0.98510900  0.15692262  0.99112279    -0.14700
C238        C  0.00396704  0.17790647  0.52295138    -0.29900
H239        H  0.99419131  0.17482380  0.46499135     0.14300
H240        H  0.99475951  0.15478836  0.04913827     0.14900
C241        C  0.98111855  0.82691936  0.25976406    -0.14700
C242        C  0.01309631  0.82651478  0.23137809    -0.29900
H243        H  0.99478055  0.82697561  0.28820099     0.14300
H244        H  0.99927481  0.82517349  0.20299397     0.14900
C245        C  0.82849172  0.97581447  0.25574920    -0.14700
C246        C  0.82948320  0.00820805  0.22747653    -0.29900
H247        H  0.82775977  0.98936589  0.28414583     0.14300
H248        H  0.82885019  0.99496889  0.19899615     0.14900
C249        C  0.98895286  0.82512005  0.01063353    -0.14700
C250        C  0.00090250  0.84165992  0.48608177    -0.29900
H251        H  0.98034825  0.84342555  0.54238333     0.14300
H252        H  0.00752487  0.82350942  0.95393040     0.14900
C253        C  0.83705409  0.97207142  0.97884465    -0.14700
C254        C  0.83447510  0.00418501  0.00730116    -0.29900
H255        H  0.82663578  0.00588719  0.45035657     0.14300
H256        H  0.83283210  0.99043817  0.03560946     0.14900
C257        C  0.18656110  0.64729665  0.23858181    -0.14700
C258        C  0.16118701  0.67892091  0.25978172    -0.29900
H259        H  0.21274882  0.66115376  0.21824070     0.14300
H260        H  0.13857798  0.66490336  0.28235971     0.14900
C261        C  0.15468079  0.34623039  0.26235494    -0.14700
C262        C  0.17237200  0.31463438  0.23705077    -0.29900
H263        H  0.13341384  0.33246745  0.28571864     0.14300
H264        H  0.18950073  0.32886946  0.21197508     0.14900
C265        C  0.18687250  0.66588646  0.49624664    -0.14700
C266        C  0.15241145  0.69452923  0.51203324    -0.29900
H267        H  0.21706693  0.68304911  0.48102308     0.14300
H268        H  0.20909192  0.66222883  0.97456933     0.14900
C269        C  0.18153624  0.36052045  0.50007693    -0.14700
C270        C  0.15362123  0.33398495  0.52360506    -0.29900
H271        H  0.20714500  0.32724930  0.97894053     0.14300
H272        H  0.13206613  0.35278304  0.54467204     0.14900
C273        C  0.16065964  0.51224911  0.38775920    -0.14700
C274        C  0.19754895  0.50819465  0.36306421    -0.29900
H275        H  0.12241783  0.51366752  0.37819598     0.14300
H276        H  0.23577821  0.50621928  0.37258458     0.14900
C277        C  0.18266835  0.48926225  0.11413726    -0.14700
C278        C  0.14512093  0.48815460  0.13844198    -0.29900
H279        H  0.22071787  0.49054076  0.12418324     0.14300
H280        H  0.10698220  0.48799722  0.12857905     0.14900
C281        C  0.31594910  0.15774436  0.24278890    -0.14700
C282        C  0.34480152  0.18375476  0.26624857    -0.29900
H283        H  0.33256556  0.13638518  0.22057988     0.14300
H284        H  0.32812863  0.20894723  0.28605413     0.14900
C285        C  0.67848508  0.15099068  0.26286229    -0.14700
C286        C  0.64817620  0.18604394  0.24964026    -0.29900
H287        H  0.66397557  0.12153299  0.28031328     0.14300
H288        H  0.66366663  0.21797696  0.23533464     0.14900
C289        C  0.30893572  0.19071277  0.52882784    -0.14700
C290        C  0.33934354  0.16708940  0.50555194    -0.29900
H291        H  0.33342038  0.19918325  0.04810018     0.14300
H292        H  0.32421660  0.14091965  0.48547428     0.14900
C293        C  0.65155075  0.17762312  0.01579371    -0.14700
C294        C  0.67996359  0.14945567  0.99391749    -0.29900
H295        H  0.66835102  0.20610403  0.03318732     0.14300
H296        H  0.65427264  0.14809131  0.47112335     0.14900
C297        C  0.49507576  0.20828592  0.39791492    -0.14700
C298        C  0.50118902  0.17054949  0.37397040    -0.29900
H299        H  0.49094409  0.24590936  0.38766421     0.14300
H300        H  0.50459343  0.13297306  0.38450417     0.14900
C301        C  0.49318359  0.15285717  0.12396654    -0.14700
C302        C  0.49006728  0.19279512  0.14625910    -0.29900
H303        H  0.49579638  0.11596398  0.13587454     0.14300
H304        H  0.48772966  0.22968058  0.13429878     0.14900
C305        C  0.84591804  0.34077191  0.24086036    -0.14700
C306        C  0.82324705  0.30885221  0.26369660    -0.29900
H307        H  0.87046087  0.32707401  0.21942952     0.14300
H308        H  0.80241153  0.32239457  0.28728429     0.14900
C309        C  0.80838621  0.64220925  0.24935979    -0.14700
C310        C  0.83845095  0.67348946  0.23129251    -0.29900
H311        H  0.77780416  0.65649535  0.26557517     0.14300
H312        H  0.86612602  0.65917663  0.21238564     0.14900
C313        C  0.83091520  0.30704553  0.98023088    -0.14700
C314        C  0.86027933  0.33589910  0.00139668    -0.29900
H315        H  0.80819735  0.32331657  0.95845936     0.14300
H316        H  0.77557819  0.34144699  0.52433928     0.14900
C317        C  0.86749332  0.64002414  0.98993257    -0.14700
C318        C  0.83607117  0.66964359  0.00798057    -0.29900
H319        H  0.89672645  0.65613753  0.97311641     0.14300
H320        H  0.78126960  0.67695381  0.52927620     0.14900
C321        C  0.80132221  0.49683188  0.38238534    -0.14700
C322        C  0.84036036  0.49381759  0.35957481    -0.29900
H323        H  0.76399257  0.49721502  0.37088857     0.14300
H324        H  0.87771064  0.49449593  0.37102741     0.14900
C325        C  0.85873444  0.49259173  0.11030822    -0.14700
C326        C  0.81747739  0.49039941  0.13109758    -0.29900
H327        H  0.89472871  0.49530840  0.12389117     0.14300
H328        H  0.78130482  0.48712311  0.11788622     0.14900
C329        C  0.34611726  0.81207301  0.23451460    -0.14700
C330        C  0.31561038  0.83660920  0.25717865    -0.29900
H331        H  0.33117442  0.78578205  0.21444221     0.14300
H332        H  0.33073554  0.85935131  0.27948422     0.14900
C333        C  0.64850723  0.84361047  0.24826601    -0.14700
C334        C  0.67972538  0.81942681  0.22594258    -0.29900
H335        H  0.66295195  0.86869721  0.26937719     0.14300
H336        H  0.66544950  0.79808175  0.20258463     0.14900
C337        C  0.33341271  0.82722816  0.48979718    -0.14700
C338        C  0.30381677  0.85141128  0.51342478    -0.29900
H339        H  0.31769105  0.80133012  0.46976689     0.14300
H340        H  0.33939287  0.85447475  0.03303993     0.14900
C341        C  0.68739903  0.81448351  0.97718433    -0.14700
C342        C  0.65624253  0.84394047  0.99563906    -0.29900
H343        H  0.67313854  0.78801607  0.95697141     0.14300
H344        H  0.64935202  0.89601225  0.51373959     0.14900
C345        C  0.48604126  0.85314034  0.37671618    -0.14700
C346        C  0.49226205  0.81352091  0.35447426    -0.29900
H347        H  0.48185028  0.88975462  0.36457593     0.14300
H348        H  0.49637447  0.77678345  0.36639697     0.14900
C349        C  0.50401293  0.80837889  0.10302444    -0.14700
C350        C  0.50072094  0.84629533  0.12708210    -0.29900
H351        H  0.50661360  0.77062372  0.11331525     0.14300
H352        H  0.49808419  0.88402640  0.11674364     0.14900
O353        O  0.51028054  0.79582395  0.93087769    -0.71200
O354        O  0.48871988  0.80449932  0.54582597    -0.72200
O355        O  0.41558925  0.79648870  0.48853038    -0.60800
O356        O  0.58317208  0.79519558  0.98753126    -0.69200
O357        O  0.57482736  0.87640197  0.99531953    -0.68800
O358        O  0.40551045  0.87802935  0.49212807    -0.60000
O359        O  0.47910679  0.88615122  0.54753363    -0.72500
O360        O  0.50133654  0.87703916  0.93739381    -0.71300
Cu361      Cu  0.48978371  0.80349160  0.48968118     1.04600
Cu362      Cu  0.50063922  0.87130761  0.99361254     1.04300
C363        C  0.50572435  0.83887583  0.91658613     0.95000
C364        C  0.48381528  0.84476836  0.56422759     0.94100
C365        C  0.40794055  0.81762850  0.98746144     0.86300
C366        C  0.58126781  0.86020486  0.49248322     0.92500
O367        O  0.56914333  0.84957703  0.73700330    -0.71200
O368        O  0.42029713  0.84353311  0.74160760    -0.72200
O369        O  0.49878201  0.84736958  0.79540706    -0.60800
O370        O  0.49070260  0.84549739  0.68365666    -0.69200
O371        O  0.48915828  0.76323271  0.68404359    -0.68800
O372        O  0.50584440  0.76543564  0.79465711    -0.60000
O373        O  0.42340126  0.76145238  0.74564277    -0.72500
O374        O  0.57119202  0.76745656  0.73291929    -0.71300
Cu375      Cu  0.49459564  0.84943401  0.73941669     1.04600
Cu376      Cu  0.49747930  0.76154568  0.73939062     1.04300
C377        C  0.59342418  0.80935578  0.73336708     0.95000
C378        C  0.39853491  0.80157156  0.74477658     0.94100
C379        C  0.50424246  0.80625061  0.81256419     0.86300
C380        C  0.48837057  0.80414536  0.66629758     0.92500
O381        O  0.77936885  0.51711990  0.55297625    -0.71200
O382        O  0.82493287  0.48903270  0.93862880    -0.72200
O383        O  0.82012277  0.41399102  0.99427295    -0.60800
O384        O  0.78181151  0.58600479  0.49421884    -0.69200
O385        O  0.86340368  0.57747136  0.48982880    -0.68800
O386        O  0.84861529  0.43028322  0.49751957    -0.60000
O387        O  0.90687232  0.48341036  0.94197762    -0.72500
O388        O  0.86105566  0.50859202  0.55044237    -0.71300
Cu389      Cu  0.81876118  0.48878082  0.99447232     1.04600
Cu390      Cu  0.85865184  0.50361711  0.49399680     1.04300
C391        C  0.82132632  0.51412722  0.56923701     0.95000
C392        C  0.86708692  0.48634766  0.92274479     0.94100
C393        C  0.80565212  0.41092417  0.50113315     0.86300
C394        C  0.82509454  0.60489225  0.49072392     0.92500
O395        O  0.89599526  0.50583100  0.69318271    -0.71200
O396        O  0.88071714  0.49764395  0.80417113    -0.72200
O397        O  0.88413543  0.42733946  0.74610460    -0.60800
O398        O  0.89176816  0.57659447  0.75268081    -0.69200
O399        O  0.81008791  0.58042188  0.74561400    -0.68800
O400        O  0.80256675  0.43207697  0.73843042    -0.60000
O401        O  0.79898046  0.50166622  0.79792577    -0.72500
O402        O  0.81429453  0.51056463  0.68734429    -0.71300
Cu403      Cu  0.89107749  0.50177169  0.74919652     1.04600
Cu404      Cu  0.80369865  0.50636369  0.74213325     1.04300
C405        C  0.85728945  0.50929044  0.67271084     0.95000
C406        C  0.83754086  0.49796494  0.81851979     0.94100
C407        C  0.84192098  0.40635263  0.74147043     0.86300
C408        C  0.85198806  0.60192846  0.75016858     0.92500
O409        O  0.49446538  0.13090294  0.56064229    -0.71200
O410        O  0.50713270  0.13085166  0.95196379    -0.72200
O411        O  0.57689569  0.13056111  0.01055905    -0.60800
O412        O  0.42116778  0.13542311  0.50295175    -0.69200
O413        O  0.41276982  0.21570500  0.51478260    -0.68800
O414        O  0.57058906  0.21217300  0.01685281    -0.60000
O415        O  0.50012166  0.21244398  0.95780308    -0.72500
O416        O  0.48755548  0.21165814  0.57108243    -0.71300
Cu417      Cu  0.50308302  0.12165877  0.00717132     1.04600
Cu418      Cu  0.48691817  0.22667069  0.51646373     1.04300
C419        C  0.49199728  0.16735830  0.58318020     0.95000
C420        C  0.50542203  0.17405039  0.93749851     0.94100
C421        C  0.59709434  0.17322630  0.01441100     0.86300
C422        C  0.40191950  0.15696173  0.00569074     0.92500
O423        O  0.51479578  0.11463637  0.81063545    -0.71200
O424        O  0.50610298  0.13949095  0.70069509    -0.72200
O425        O  0.58492308  0.12169178  0.75151316    -0.60800
O426        O  0.43703054  0.13250583  0.75894030    -0.69200
O427        O  0.44444295  0.21332844  0.76968749    -0.68800
O428        O  0.59234790  0.20224992  0.76317864    -0.60000
O429        O  0.51400517  0.22030140  0.71089640    -0.72500
O430        O  0.52131795  0.19565109  0.82044333    -0.71300
Cu431      Cu  0.51062613  0.12420611  0.75509434     1.04600
Cu432      Cu  0.51846441  0.21069583  0.76628568     1.04300
C433        C  0.51793817  0.15145478  0.83288863     0.95000
C434        C  0.50793889  0.18395369  0.68853610     0.94100
C435        C  0.61191478  0.16019367  0.75645952     0.86300
C436        C  0.41758252  0.17457658  0.76577039     0.92500
O437        O  0.19643036  0.57288441  0.00043769    -0.71200
O438        O  0.21167838  0.42501859  0.99437175    -0.72200
O439        O  0.19584735  0.50134490  0.94252933    -0.60800
O440        O  0.23578579  0.51175648  0.55167820    -0.69200
O441        O  0.15443326  0.51317399  0.56002566    -0.68800
O442        O  0.11449754  0.49267092  0.94870589    -0.60000
O443        O  0.13051390  0.41629307  0.00217068    -0.72500
O444        O  0.11522945  0.56423135  0.00779301    -0.71300
Cu445      Cu  0.20692216  0.49919798  0.99732178     1.04600
Cu446      Cu  0.11996981  0.48988762  0.00472317     1.04300
C447        C  0.15366050  0.59185316  0.00543222     0.95000
C448        C  0.17339830  0.39741500  0.99766778     0.94100
C449        C  0.15268856  0.49697963  0.92810999     0.86300
C450        C  0.19841082  0.51124258  0.57328804     0.92500
O451        O  0.14011690  0.49484806  0.80786702    -0.71200
O452        O  0.13275056  0.49870172  0.69675658    -0.72200
O453        O  0.13106751  0.42207972  0.75026605    -0.60800
O454        O  0.14180675  0.57068326  0.75298343    -0.69200
O455        O  0.22390272  0.56563015  0.75156038    -0.68800
O456        O  0.21306850  0.41656726  0.74819928    -0.60000
O457        O  0.21472981  0.49427709  0.69344153    -0.72500
O458        O  0.22204637  0.48921254  0.80507848    -0.71300
Cu459      Cu  0.13363771  0.49664126  0.75212816     1.04600
Cu460      Cu  0.22135641  0.49108775  0.74942409     1.04300
C461        C  0.18234745  0.49210693  0.82401890     0.95000
C462        C  0.17231278  0.49803866  0.67760600     0.94100
C463        C  0.17028836  0.39591646  0.74874201     0.86300
C464        C  0.18445121  0.59149952  0.75262046     0.92500
O465        O  0.91727341  0.81962670  0.97148570    -0.71200
O466        O  0.77017814  0.81085032  0.95566256    -0.72200
O467        O  0.84141728  0.88942114  0.95637643    -0.60800
O468        O  0.84636845  0.74190928  0.97091596    -0.69200
O469        O  0.80435133  0.77322586  0.53071307    -0.68800
O470        O  0.81579586  0.92052581  0.51702517    -0.60000
O471        O  0.73736902  0.85050857  0.51444372    -0.72500
O472        O  0.88394794  0.84392916  0.53367215    -0.71300
Cu473      Cu  0.84422198  0.81515878  0.96148381     1.04600
Cu474      Cu  0.81001603  0.84741252  0.52608706     1.04300
C475        C  0.91373064  0.84044523  0.50641145     0.95000
C476        C  0.72051475  0.84233320  0.48178429     0.94100
C477        C  0.82146110  0.93826337  0.48443116     0.86300
C478        C  0.81137798  0.74458806  0.50303524     0.92500
O479        O  0.83558437  0.91169681  0.76897926    -0.71200
O480        O  0.83222729  0.76205392  0.76577316    -0.72200
O481        O  0.90737080  0.83553401  0.76069316    -0.60800
O482        O  0.75947307  0.83860726  0.77409692    -0.69200
O483        O  0.74910672  0.83941591  0.71289858    -0.68800
O484        O  0.89669548  0.83742546  0.69958353    -0.60000
O485        O  0.82039107  0.76447411  0.70474766    -0.72500
O486        O  0.82480366  0.91331703  0.70788205    -0.71300
Cu487      Cu  0.83396960  0.83688603  0.76956056     1.04600
Cu488      Cu  0.82242213  0.83883857  0.70418018     1.04300
C489        C  0.83093074  0.93603453  0.73871464     0.95000
C490        C  0.82582493  0.73983963  0.73471812     0.94100
C491        C  0.92530234  0.83580473  0.72794751     0.86300
C492        C  0.73106961  0.83901815  0.74557478     0.92500
O493        O  0.89836964  0.18030118  0.52348301    -0.71200
O494        O  0.74895232  0.18082406  0.52363517    -0.72200
O495        O  0.82296927  0.10666630  0.53007691    -0.60800
O496        O  0.82351060  0.25403081  0.51788912    -0.69200
O497        O  0.82793964  0.22483706  0.95612860    -0.68800
O498        O  0.83467643  0.07676286  0.96910051    -0.60000
O499        O  0.75733897  0.14659093  0.96346902    -0.72500
O500        O  0.90604619  0.15391822  0.96161397    -0.71300
Cu501      Cu  0.82353069  0.18077561  0.52593274     1.04600
Cu502      Cu  0.83146439  0.15028973  0.96041516     1.04300
C503        C  0.92158876  0.17587110  0.49278626     0.95000
C504        C  0.72582566  0.17493224  0.49285222     0.94100
C505        C  0.82302130  0.07857068  0.50157381     0.86300
C506        C  0.82409863  0.27279131  0.48538826     0.92500
O507        O  0.84739157  0.24497698  0.73499431    -0.71200
O508        O  0.84063698  0.09584601  0.73728448    -0.72200
O509        O  0.77025455  0.17288016  0.74092351    -0.60800
O510        O  0.91792952  0.16731942  0.73122267    -0.69200
O511        O  0.92644436  0.16619624  0.79254279    -0.68800
O512        O  0.77842162  0.17842960  0.80215058    -0.60000
O513        O  0.84630246  0.09728698  0.79872785    -0.72500
O514        O  0.85960376  0.24600944  0.79599088    -0.71300
Cu515      Cu  0.84376969  0.17020223  0.73399108     1.04600
Cu516      Cu  0.85285592  0.17195589  0.79954069     1.04300
C517        C  0.85559762  0.26886540  0.76510606     0.95000
C518        C  0.84199641  0.07304144  0.76837093     0.94100
C519        C  0.75106813  0.17698359  0.77306140     0.86300
C520        C  0.94546792  0.16588162  0.76015818     0.92500
O521        O  0.09141735  0.15837714  0.99150204    -0.71200
O522        O  0.24087764  0.16393935  0.99375351    -0.72200
O523        O  0.16852601  0.08676543  0.99488434    -0.60800
O524        O  0.16391387  0.23564392  0.99034190    -0.69200
O525        O  0.15161616  0.25625640  0.55458278    -0.68800
O526        O  0.15852763  0.10703985  0.55464306    -0.60000
O527        O  0.22969858  0.18652149  0.55662415    -0.72500
O528        O  0.08158056  0.17812113  0.55362407    -0.71300
Cu529      Cu  0.16628605  0.16098363  0.99042812     1.04600
Cu530      Cu  0.15539810  0.18183737  0.55697757     1.04300
C531        C  0.06750252  0.15716298  0.02204028     0.95000
C532        C  0.26318774  0.17006663  0.02485033     0.94100
C533        C  0.17039235  0.06483785  0.02631932     0.86300
C534        C  0.15869360  0.26011278  0.02043712     0.92500
O535        O  0.18383915  0.08506965  0.79865032    -0.71200
O536        O  0.19445044  0.23383755  0.79761618    -0.72200
O537        O  0.11506825  0.16397327  0.80619405    -0.60800
O538        O  0.26187031  0.15549981  0.78982845    -0.69200
O539        O  0.24919697  0.15436018  0.72882955    -0.68800
O540        O  0.10296583  0.16325383  0.74521431    -0.60000
O541        O  0.18047295  0.23411601  0.73681428    -0.72500
O542        O  0.17142457  0.08477274  0.73770775    -0.71300
Cu543      Cu  0.18915710  0.15959648  0.80021319     1.04600
Cu544      Cu  0.17554780  0.15921199  0.73501631     1.04300
C545        C  0.17633381  0.06141940  0.76838941     0.95000
C546        C  0.18945105  0.25737437  0.76710582     0.94100
C547        C  0.08582160  0.16448371  0.77815305     0.86300
C548        C  0.27851140  0.15363564  0.75675560     0.92500
O549        O  0.18026371  0.75613968  0.96452194    -0.71200
O550        O  0.17519245  0.90421273  0.96723251    -0.72200
O551        O  0.25084024  0.83201003  0.97244865    -0.60800
O552        O  0.10335850  0.82751707  0.95958022    -0.69200
O553        O  0.07312060  0.84827283  0.52525347    -0.68800
O554        O  0.22208929  0.85162779  0.53832816    -0.60000
O555        O  0.14770418  0.92383466  0.52825013    -0.72500
O556        O  0.14718245  0.77572196  0.53673131    -0.71300
Cu557      Cu  0.17759161  0.83007870  0.96389369     1.04600
Cu558      Cu  0.14718568  0.85005951  0.53426882     1.04300
C559        C  0.17581213  0.73131332  0.99440879     0.95000
C560        C  0.17099895  0.92719224  0.99801186     0.94100
C561        C  0.26975380  0.83187428  0.00502714     0.86300
C562        C  0.07537473  0.82645421  0.98800804     0.92500
O563        O  0.09414621  0.82696105  0.77392140    -0.71200
O564        O  0.24180374  0.82352337  0.76189154    -0.72200
O565        O  0.17016967  0.90032036  0.76891199    -0.60800
O566        O  0.16649128  0.75096753  0.76642668    -0.69200
O567        O  0.15510914  0.75340503  0.70534017    -0.68800
O568        O  0.16040765  0.90203201  0.70771441    -0.60000
O569        O  0.23237521  0.82656519  0.70065877    -0.72500
O570        O  0.08411959  0.82967496  0.71276792    -0.71300
Cu571      Cu  0.16844592  0.82538459  0.76993027     1.04600
Cu572      Cu  0.15773451  0.82791022  0.70447405     1.04300
C573        C  0.06584313  0.82897722  0.74540789     0.95000
C574        C  0.26034833  0.82460829  0.72939653     0.94100
C575        C  0.16595546  0.92467007  0.73858131     0.86300
C576        C  0.16003434  0.72881981  0.73539661     0.92500
C577        C  0.16753562  0.97942156  0.73836672    -0.14700
C578        C  0.17372982  0.00665094  0.76932296    -0.29900
H579        H  0.16385565  0.99782368  0.71167687     0.14300
H580        H  0.17760536  0.98837374  0.79604031     0.14900
C581        C  0.17151861  0.01004803  0.02820213    -0.14700
C582        C  0.17083901  0.98193036  0.99737973    -0.29900
H583        H  0.17234645  0.99259235  0.05536434     0.14300
H584        H  0.15519858  0.01658038  0.46700511     0.14900
C585        C  0.99960699  0.16420965  0.75538043    -0.14700
C586        C  0.03177556  0.16607888  0.78402180    -0.29900
H587        H  0.01334770  0.16196852  0.72715819     0.14300
H588        H  0.01826602  0.16842624  0.81229657     0.14900
C589        C  0.97630925  0.17619792  0.49189381    -0.14700
C590        C  0.01278422  0.15586293  0.02227551    -0.29900
H591        H  0.00296664  0.15766817  0.96419789     0.14300
H592        H  0.98596360  0.17862764  0.54982703     0.14900
C593        C  0.97942954  0.83407516  0.72234093    -0.14700
C594        C  0.01168908  0.83065846  0.75082392    -0.29900
H595        H  0.99297873  0.83541112  0.69403358     0.14300
H596        H  0.99809236  0.82926018  0.77911820     0.14900
C597        C  0.83291544  0.99084443  0.73854975    -0.14700
C598        C  0.83889021  0.01822454  0.76952573    -0.29900
H599        H  0.82970624  0.00919567  0.71181119     0.14300
H600        H  0.84184554  0.00008741  0.79635830     0.14900
C601        C  0.96772137  0.84159755  0.51371746    -0.14700
C602        C  0.02119647  0.82482588  0.98235152    -0.29900
H603        H  0.00248777  0.82686171  0.03907456     0.14300
H604        H  0.98807499  0.83990245  0.45745433     0.14900
C605        C  0.82368901  0.99231424  0.47864628    -0.14700
C606        C  0.82197986  0.02446942  0.50706878    -0.29900
H607        H  0.83899147  0.98578866  0.95054284     0.14300
H608        H  0.81950765  0.01081429  0.53536691     0.14900
C609        C  0.18827186  0.64590778  0.75377172    -0.14700
C610        C  0.15711647  0.67439804  0.73411331    -0.29900
H611        H  0.21836698  0.66279663  0.76958583     0.14300
H612        H  0.13032080  0.65733726  0.71534351     0.14900
C613        C  0.16560609  0.34140794  0.74715851    -0.14700
C614        C  0.19528115  0.31181147  0.76720779    -0.29900
H615        H  0.13504570  0.32541436  0.73133091     0.14300
H616        H  0.22241285  0.32813060  0.78607443     0.14900
C617        C  0.14851368  0.64610533  0.00895342    -0.14700
C618        C  0.18048093  0.67708505  0.99242636    -0.29900
H619        H  0.11699910  0.66083181  0.02389261     0.14300
H620        H  0.12475191  0.67800326  0.53004631     0.14900
C621        C  0.17896306  0.34322266  0.99663354    -0.14700
C622        C  0.15275589  0.31419477  0.01951373    -0.29900
H623        H  0.20691503  0.34168836  0.48158878     0.14300
H624        H  0.12841939  0.33091778  0.03985095     0.14900
C625        C  0.14688246  0.49621978  0.88730942    -0.14700
C626        C  0.18636713  0.49293381  0.86485142    -0.29900
H627        H  0.10968066  0.49725372  0.87563218     0.14300
H628        H  0.22340744  0.49104557  0.87677829     0.14900
C629        C  0.20608102  0.50739660  0.61388091    -0.14700
C630        C  0.16745458  0.50214040  0.63695097    -0.29900
H631        H  0.24369595  0.50796625  0.62481371     0.14300
H632        H  0.12999273  0.50168374  0.62568378     0.14900
C633        C  0.33207190  0.15033470  0.75071471    -0.14700
C634        C  0.36376776  0.17852415  0.77032257    -0.29900
H635        H  0.34553498  0.12610356  0.72894620     0.14300
H636        H  0.34976314  0.20614681  0.78949347     0.14900
C637        C  0.69687281  0.18072795  0.77660979    -0.14700
C638        C  0.66610680  0.15589034  0.75370946    -0.29900
H639        H  0.68196373  0.20274727  0.79914246     0.14300
H640        H  0.68102976  0.13012642  0.73352513     0.14900
C641        C  0.31753899  0.17615691  0.02625008    -0.14700
C642        C  0.34758455  0.15174283  0.00312250    -0.29900
H643        H  0.32449073  0.21307002  0.55119135     0.14300
H644        H  0.33216473  0.12481372  0.98374191     0.14900
C645        C  0.64283319  0.19882551  0.51451132    -0.14700
C646        C  0.67142234  0.17191179  0.49194987    -0.29900
H647        H  0.65940651  0.22622504  0.53297340     0.14300
H648        H  0.66255558  0.12455719  0.97393175     0.14900
C649        C  0.50974645  0.18075247  0.89709292    -0.14700
C650        C  0.51613605  0.14291727  0.87331091    -0.29900
H651        H  0.50713175  0.21841273  0.88659317     0.14300
H652        H  0.51785099  0.10505970  0.88348780     0.14900
C653        C  0.49540682  0.15758915  0.62341601    -0.14700
C654        C  0.50263640  0.19401020  0.64842026    -0.29900
H655        H  0.49396971  0.11921080  0.63249896     0.14300
H656        H  0.50497569  0.23231821  0.63926467     0.14900
C657        C  0.83801479  0.35192041  0.73980066    -0.14700
C658        C  0.86150039  0.32324638  0.76463630    -0.29900
H659        H  0.81212871  0.33539978  0.72008582     0.14300
H660        H  0.88337678  0.34043176  0.78663274     0.14900
C661        C  0.85448169  0.65649865  0.75279740    -0.14700
C662        C  0.82358296  0.68528913  0.73305765    -0.29900
H663        H  0.88353480  0.67332712  0.76969727     0.14300
H664        H  0.79789150  0.66839123  0.71336558     0.14900
C665        C  0.82578728  0.32689202  0.48110568    -0.14700
C666        C  0.80081311  0.35686332  0.50394297    -0.29900
H667        H  0.84726256  0.34243536  0.45846487     0.14300
H668        H  0.88651402  0.31895138  0.02051075     0.14900
C669        C  0.83134072  0.65874100  0.48690143    -0.14700
C670        C  0.80581160  0.69068032  0.50776410    -0.29900
H671        H  0.85926427  0.67238922  0.46780703     0.14300
H672        H  0.80987426  0.65401289  0.02759231     0.14900
C673        C  0.87104747  0.48760384  0.88191322    -0.14700
C674        C  0.83185137  0.49422329  0.85921636    -0.29900
H675        H  0.90792258  0.48441447  0.87025697     0.14300
H676        H  0.79488295  0.49739923  0.87068903     0.14900
C677        C  0.82161099  0.51634379  0.61013012    -0.14700
C678        C  0.86200459  0.51094576  0.63175978    -0.29900
H679        H  0.78568149  0.52106709  0.62306797     0.14300
H680        H  0.89828054  0.50634970  0.61939129     0.14900
C681        C  0.34426854  0.79935569  0.74809150    -0.14700
C682        C  0.31458314  0.82481174  0.72501820    -0.29900
H683        H  0.32835839  0.77500402  0.76891890     0.14300
H684        H  0.33041217  0.84529075  0.70195291     0.14900
C685        C  0.64749074  0.81092216  0.72867339    -0.14700
C686        C  0.67693261  0.83889094  0.75043401    -0.29900
H687        H  0.66378114  0.78628525  0.70830086     0.14300
H688        H  0.66128715  0.85954055  0.77340180     0.14900
C689        C  0.35389257  0.81200776  0.98523728    -0.14700
C690        C  0.32389874  0.83444771  0.00945412    -0.29900
H691        H  0.33844693  0.78814448  0.96372533     0.14300
H692        H  0.31974725  0.87384309  0.53559226     0.14900
C693        C  0.66664118  0.83969746  0.47550150    -0.14700
C694        C  0.63519703  0.86740352  0.49518943    -0.29900
H695        H  0.65247159  0.81412609  0.45461576     0.14300
H696        H  0.67076702  0.87334488  0.01332108     0.14900
C697        C  0.50469434  0.84425580  0.87567088    -0.14700
C698        C  0.50826654  0.80434938  0.85340003    -0.29900
H699        H  0.49962276  0.88090986  0.86381865     0.14300
H700        H  0.51314389  0.76786833  0.86562374     0.14900
C701        C  0.48406655  0.84473429  0.60513546    -0.14700
C702        C  0.48563389  0.80301014  0.62537349    -0.29900
H703        H  0.48332837  0.88050139  0.61899801     0.14300
H704        H  0.48578981  0.76714581  0.61164333     0.14900
loop_ 
_geom_bond_atom_site_label_1 
_geom_bond_atom_site_label_2 
_geom_bond_distance 
_geom_bond_site_symmetry_2 
_ccdc_geom_bond_type 
O1           C11   1.278       .  A
O1         Cu361   2.011       .  S
O2           C12   1.277       .  A
O2           Cu9   2.012   1_554  S
O3          C365   1.277       .  A
O3           Cu9   2.009       .  S
O4          C366   1.278       .  A
O4         Cu361   2.011       .  S
O5          C366   1.276       .  A
O5          Cu10   2.008       .  S
O6          C365   1.277       .  A
O6         Cu362   2.006       .  S
O7           C12   1.279       .  A
O7         Cu362   2.012   1_554  S
O8           C11   1.279       .  A
O8          Cu10   2.015       .  S
Cu9         O353   1.995       .  S
Cu9         O356   2.007       .  S
Cu9        Cu362   2.375       .  S
Cu10        O358   2.007       .  S
Cu10        O359   1.995       .  S
Cu10       Cu361   2.376       .  S
C11         C345   1.476       .  S
C12         C349   1.478       .  S
C13         O355   1.277       .  A
C13         O358   1.277       .  A
C13         C337   1.468       .  S
C14         O356   1.278       .  A
C14         O357   1.276       .  A
C14         C342   1.469       .  S
O15          C25   1.277       .  A
O15         Cu23   2.011       .  S
O16          C26   1.278       .  A
O16         Cu23   2.010       .  S
O17          C27   1.276       .  A
O17         Cu23   1.994       .  S
O18          C28   1.277       .  A
O18         Cu23   2.012       .  S
O19          C28   1.279       .  A
O19         Cu24   2.013       .  S
O20          C27   1.280       .  A
O20         Cu24   2.031       .  S
O21          C26   1.276       .  A
O21         Cu24   2.006       .  S
O22          C25   1.277       .  A
O22         Cu24   2.008       .  S
Cu23        Cu24   2.376       .  S
C25         C333   1.469       .  S
C26         C329   1.468       .  S
C27         C346   1.480       .  S
C28         C350   1.477       .  S
O29          C39   1.279       .  A
O29        Cu389   2.024   1_554  S
O30          C40   1.276       .  A
O30         Cu37   2.008       .  S
O31         C393   1.277       .  A
O31         Cu37   2.013       .  S
O32          C42   1.279       .  A
O32        Cu389   2.016       .  S
O33          C42   1.276       .  A
O33         Cu38   2.005       .  S
O34          C41   1.276   1_554  A
O34         Cu38   2.005   1_554  S
O35          C40   1.280       .  A
O35        Cu390   2.018       .  S
O36          C39   1.277       .  A
O36         Cu38   2.006   1_554  S
Cu37        O381   1.987       .  S
Cu37        O384   2.014       .  S
Cu37       Cu390   2.376       .  S
Cu38        O387   2.005       .  S
Cu38       Cu389   2.373       .  S
C39         C325   1.477       .  S
C40         C321   1.478       .  S
C41         O383   1.279       .  A
C41         C314   1.471   1_556  S
C42         C317   1.470       .  S
O43          C53   1.277       .  A
O43         Cu51   1.995       .  S
O44          C54   1.277       .  A
O44         Cu51   2.010       .  S
O45          C55   1.276       .  A
O45         Cu51   2.006       .  S
O46          C56   1.278       .  A
O46         Cu51   2.007       .  S
O47          C56   1.276       .  A
O47         Cu52   2.008       .  S
O48          C55   1.278       .  A
O48         Cu52   2.011       .  S
O49          C54   1.279       .  A
O49         Cu52   2.015       .  S
O50          C53   1.280       .  A
O50         Cu52   2.034       .  S
Cu51        Cu52   2.375       .  S
C53         C326   1.482       .  S
C54         C322   1.477       .  S
C55         C305   1.467       .  S
C56         C309   1.470       .  S
O57          C67   1.280       .  A
O57        Cu417   2.024       .  S
O58          C68   1.277       .  A
O58         Cu65   1.997       .  S
O59          C69   1.278       .  A
O59         Cu65   2.005       .  S
O60         C422   1.277       .  A
O60        Cu417   2.012       .  S
O61         C422   1.279       .  A
O61         Cu66   2.020       .  S
O62          C69   1.277       .  A
O62        Cu418   2.014       .  S
O63          C68   1.279       .  A
O63        Cu418   2.028       .  S
O64          C67   1.276       .  A
O64         Cu66   1.993       .  S
Cu65        O409   2.013       .  S
Cu65        O412   2.011       .  S
Cu65       Cu418   2.375       .  S
Cu66        O414   2.018       .  S
Cu66        O415   2.007   1_554  S
Cu66       Cu417   2.375       .  S
C67         C301   1.476       .  S
C68         C297   1.481       .  S
C69         C645   1.472       .  S
C70         O412   1.276       .  A
C70         O413   1.280       .  A
C70         C290   1.476       .  S
O71          C81   1.276       .  A
O71         Cu79   2.003       .  S
O72          C82   1.277       .  A
O72         Cu79   2.000       .  S
O73          C83   1.279       .  A
O73         Cu79   2.017       .  S
O74          C84   1.279       .  A
O74         Cu79   2.018       .  S
O75          C84   1.275       .  A
O75         Cu80   2.000       .  S
O76          C83   1.276       .  A
O76         Cu80   2.006       .  S
O77          C82   1.279       .  A
O77         Cu80   2.018       .  S
O78          C81   1.280       .  A
O78         Cu80   2.023       .  S
Cu79        Cu80   2.374       .  S
C81         C298   1.475       .  S
C82         C302   1.475       .  S
C83         C286   1.472       .  S
C84         C282   1.468       .  S
O85          C95   1.278       .  A
O85         Cu93   2.016       .  S
O86          C96   1.277       .  A
O86         Cu93   2.012       .  S
O87          C97   1.278       .  A
O87         Cu93   2.005       .  S
O88          C98   1.277       .  A
O88        Cu445   2.006   1_554  S
O89          C98   1.278       .  A
O89        Cu446   2.007       .  S
O90          C97   1.277       .  A
O90         Cu94   2.011       .  S
O91          C96   1.278       .  A
O91         Cu94   2.015       .  S
O92          C95   1.279       .  A
O92         Cu94   2.016       .  S
Cu93        O440   2.024       .  S
Cu93        Cu94   2.375       .  S
Cu94        O441   1.998       .  S
C95         C265   1.478       .  S
C96         C269   1.474       .  S
C97         C273   1.474       .  S
C98         C277   1.472       .  S
O99         C109   1.277       .  A
O99        Cu107   2.000       .  S
O100        C110   1.278       .  A
O100       Cu107   2.017       .  S
O101        C111   1.276       .  A
O101       Cu107   2.006       .  S
O102        C112   1.278       .  A
O102       Cu107   2.005       .  S
O103        C112   1.276       .  A
O103       Cu108   2.008       .  S
O104        C111   1.278       .  A
O104       Cu108   2.012       .  S
O105        C110   1.277       .  A
O105       Cu108   1.995       .  S
O106        C109   1.278       .  A
O106       Cu108   2.016       .  S
Cu107      Cu108   2.376       .  S
C109        C274   1.475       .  S
C110        C278   1.474       .  S
C111        C261   1.468       .  S
C112        C257   1.469       .  S
O113        C475   1.279       .  A
O113       Cu121   2.012       .  S
O114        C476   1.277       .  A
O114       Cu121   2.015       .  S
O115        C477   1.277       .  A
O115       Cu121   2.009       .  S
O116        C478   1.277       .  A
O116       Cu121   2.003       .  S
O117        C126   1.277       .  A
O117       Cu122   2.014       .  S
O118        C125   1.278   1_554  A
O118       Cu122   2.006       .  S
O119        C124   1.278   1_554  A
O119       Cu122   2.005       .  S
O120        C123   1.278       .  A
O120       Cu122   2.016       .  S
Cu121      Cu474   2.373       .  S
Cu122      Cu473   2.373   1_554  S
C123        O465   1.278   1_554  A
C123        C249   1.477       .  S
C124        O466   1.277       .  A
C124        C341   1.469       .  S
C125        O467   1.278       .  A
C125        C253   1.476       .  S
C126        O468   1.278   1_554  A
C126        C318   1.471       .  S
O127        C137   1.276       .  A
O127       Cu135   1.999       .  S
O128        C138   1.278       .  A
O128       Cu135   2.011       .  S
O129        C139   1.277       .  A
O129       Cu135   2.010       .  S
O130        C140   1.277       .  A
O130       Cu135   2.005       .  S
O131        C140   1.277       .  A
O131       Cu136   2.015       .  S
O132        C139   1.278       .  A
O132       Cu136   2.002       .  S
O133        C138   1.276       .  A
O133       Cu136   2.004       .  S
O134        C137   1.279       .  A
O134       Cu136   2.016       .  S
Cu135      Cu136   2.375       .  S
C137        C245   1.473       .  S
C138        C310   1.468       .  S
C139        C241   1.473       .  S
C140        C334   1.471       .  S
O141        C151   1.279   1_554  A
O141       Cu149   2.012       .  S
O142        C152   1.279   1_554  A
O142       Cu149   2.020       .  S
O143        C153   1.277       .  A
O143       Cu149   2.009       .  S
O144        C154   1.277   1_554  A
O144       Cu149   2.003       .  S
O145        C506   1.278       .  A
O145       Cu150   2.015       .  S
O146        C505   1.279       .  A
O146       Cu150   2.009       .  S
O147        C504   1.276       .  A
O147       Cu150   2.007       .  S
O148        C503   1.275       .  A
O148       Cu150   2.001       .  S
Cu149      Cu502   2.373   1_554  S
Cu150      Cu501   2.376       .  S
C151        O500   1.277       .  A
C151        C237   1.479       .  S
C152        O499   1.276       .  A
C152        C294   1.473       .  S
C153        O498   1.279   1_554  A
C153        C254   1.476       .  S
C154        O497   1.278       .  A
C154        C313   1.473       .  S
O155        C165   1.277       .  A
O155       Cu163   2.002       .  S
O156        C166   1.277       .  A
O156       Cu163   2.011       .  S
O157        C167   1.280       .  A
O157       Cu163   2.021       .  S
O158        C168   1.277       .  A
O158       Cu163   2.014       .  S
O159        C168   1.280       .  A
O159       Cu164   2.014       .  S
O160        C167   1.275       .  A
O160       Cu164   2.003       .  S
O161        C166   1.279       .  A
O161       Cu164   2.004       .  S
O162        C165   1.277       .  A
O162       Cu164   2.015       .  S
Cu163      Cu164   2.373       .  S
C165        C306   1.470       .  S
C166        C246   1.475       .  S
C167        C285   1.471       .  S
C168        C233   1.480       .  S
O169        C179   1.281       .  A
O169       Cu177   2.027       .  S
O170        C180   1.280       .  A
O170       Cu177   2.023       .  S
O171        C181   1.278       .  A
O171       Cu177   2.014       .  S
O172        C182   1.279       .  A
O172       Cu177   2.017       .  S
O173        C534   1.276       .  A
O173       Cu178   2.003       .  S
O174        C533   1.278       .  A
O174       Cu178   2.017       .  S
O175        C532   1.277       .  A
O175       Cu178   2.015       .  S
O176        C531   1.276       .  A
O176       Cu178   2.004       .  S
Cu177      Cu530   2.373       .  S
Cu178      Cu529   2.373   1_554  S
C179        O528   1.275       .  A
C179        C238   1.476       .  S
C180        O527   1.276       .  A
C180        C289   1.475       .  S
C181        O526   1.280       .  A
C181        C229   1.480       .  S
C182        O525   1.277       .  A
C182        C270   1.475       .  S
O183        C193   1.277       .  A
O183       Cu191   2.009       .  S
O184        C194   1.278       .  A
O184       Cu191   2.007       .  S
O185        C195   1.276       .  A
O185       Cu191   1.998       .  S
O186        C196   1.278       .  A
O186       Cu191   2.004       .  S
O187        C196   1.277       .  A
O187       Cu192   2.015       .  S
O188        C195   1.281       .  A
O188       Cu192   2.028       .  S
O189        C194   1.277       .  A
O189       Cu192   2.011       .  S
O190        C193   1.277       .  A
O190       Cu192   2.001       .  S
Cu191      Cu192   2.374       .  S
C193        C226   1.472       .  S
C194        C262   1.472       .  S
C195        C234   1.476       .  S
C196        C281   1.472       .  S
O197        C207   1.280       .  A
O197       Cu205   2.024       .  S
O198        C208   1.281       .  A
O198       Cu205   2.034       .  S
O199        C209   1.275       .  A
O199       Cu205   1.991       .  S
O200        C210   1.276       .  A
O200       Cu205   2.004       .  S
O201        C562   1.278   1_554  A
O201       Cu206   2.011       .  S
O202        C561   1.278       .  A
O202       Cu206   2.016       .  S
O203        C560   1.280   1_554  A
O203       Cu206   2.023       .  S
O204        C559   1.280   1_554  A
O204       Cu206   2.030       .  S
Cu205      Cu558   2.375       .  S
Cu206      Cu557   2.376   1_554  S
C207        O556   1.276       .  A
C207        C266   1.474       .  S
C208        O555   1.277       .  A
C208        C230   1.483       .  S
C209        O554   1.279       .  A
C209        C338   1.471       .  S
C210        O553   1.280       .  A
C210        C250   1.477       .  S
O211        C221   1.278       .  A
O211       Cu219   2.008       .  S
O212        C222   1.278       .  A
O212       Cu219   2.016       .  S
O213        C223   1.277       .  A
O213       Cu219   1.995       .  S
O214        C224   1.276       .  A
O214       Cu219   2.003       .  S
O215        C224   1.278       .  A
O215       Cu220   2.009       .  S
O216        C223   1.278       .  A
O216       Cu220   2.014       .  S
O217        C222   1.277       .  A
O217       Cu220   1.999       .  S
O218        C221   1.276       .  A
O218       Cu220   2.004       .  S
Cu219      Cu220   2.377       .  S
C221        C242   1.472       .  S
C222        C330   1.471       .  S
C223        C225   1.473       .  S
C224        C258   1.468       .  S
C225        C226   1.345   1_565  D
C225        H227   1.087       .  S
C226        H228   1.087   1_545  S
C229        C230   1.350   1_545  D
C229        H231   1.087       .  S
C230        H584   1.086   1_565  S
H232        C582   1.087       .  S
C233        C234   1.344   1_655  D
C233        H235   1.086       .  S
C234        H236   1.087   1_455  S
C237        C590   1.344   1_656  D
C237        H591   1.087   1_655  S
C238        C589   1.342   1_455  D
C238        H592   1.087   1_455  S
H239        C589   1.087       .  S
H240        C590   1.087   1_655  S
C241        C242   1.343   1_655  D
C241        H243   1.087       .  S
C242        H244   1.087   1_455  S
C245        C246   1.343   1_565  D
C245        H247   1.087       .  S
C246        H248   1.087   1_545  S
C249        C602   1.345   1_654  D
C249        H603   1.087   1_655  S
C250        C601   1.344   1_455  D
C250        H604   1.087   1_455  S
H251        C601   1.086       .  S
H252        C602   1.087       .  S
C253        C254   1.345   1_566  D
C253        H607   1.087       .  S
C254        H256   1.087   1_545  S
H255        C605   1.087   1_545  S
C257        C258   1.339       .  D
C257        H259   1.087       .  S
C258        H260   1.087       .  S
C261        C262   1.340       .  D
C261        H263   1.087       .  S
C262        H264   1.087       .  S
C265        C266   1.342       .  D
C265        H267   1.087       .  S
C266        H620   1.087       .  S
H268        C618   1.087       .  S
C269        C270   1.342       .  D
C269        H623   1.087       .  S
C270        H272   1.087       .  S
H271        C621   1.087       .  S
C273        C274   1.345       .  D
C273        H275   1.087       .  S
C274        H276   1.087       .  S
C277        C278   1.344       .  D
C277        H279   1.087       .  S
C278        H280   1.087       .  S
C281        C282   1.341       .  D
C281        H283   1.087       .  S
C282        H284   1.087       .  S
C285        C286   1.339       .  D
C285        H287   1.087       .  S
C286        H288   1.087       .  S
C289        C290   1.341       .  D
C289        H643   1.087       .  S
C290        H292   1.087       .  S
H291        C641   1.087       .  S
C293        C421   1.474       .  S
C293        C294   1.342   1_554  D
C293        H295   1.087       .  S
C294        H648   1.087       .  S
H296        C646   1.087       .  S
C297        C298   1.346       .  D
C297        H299   1.086       .  S
C298        H300   1.087       .  S
C301        C302   1.347       .  D
C301        H303   1.086       .  S
C302        H304   1.087       .  S
C305        C306   1.340       .  D
C305        H307   1.087       .  S
C306        H308   1.087       .  S
C309        C310   1.340       .  D
C309        H311   1.087       .  S
C310        H312   1.087       .  S
C313        C314   1.342   1_556  D
C313        H315   1.087       .  S
C314        H668   1.087       .  S
H316        C666   1.087       .  S
C317        C318   1.340   1_556  D
C317        H319   1.087       .  S
C318        H672   1.087       .  S
H320        C670   1.087       .  S
C321        C322   1.344       .  D
C321        H323   1.087       .  S
C322        H324   1.087       .  S
C325        C326   1.347       .  D
C325        H327   1.087       .  S
C326        H328   1.086       .  S
C329        C330   1.341       .  D
C329        H331   1.087       .  S
C330        H332   1.087       .  S
C333        C334   1.341       .  D
C333        H335   1.087       .  S
C334        H336   1.087       .  S
C337        C338   1.343       .  D
C337        H339   1.087       .  S
C338        H692   1.087       .  S
H340        C690   1.087       .  S
C341        C342   1.340       .  D
C341        H343   1.087       .  S
C342        H696   1.087   1_556  S
H344        C694   1.087       .  S
C345        C346   1.348       .  D
C345        H347   1.087       .  S
C346        H348   1.086       .  S
C349        C350   1.344       .  D
C349        H351   1.087       .  S
C350        H352   1.087       .  S
O353        C363   1.277       .  A
O354        C364   1.281       .  A
O354       Cu361   2.024       .  S
O355       Cu361   2.010       .  S
O357       Cu362   2.007       .  S
O359        C364   1.275       .  A
O360        C363   1.280       .  A
O360       Cu362   2.032       .  S
C363        C697   1.482       .  S
C364        C701   1.474       .  S
C365        C689   1.467       .  S
C366        C694   1.470       .  S
O367        C377   1.278       .  A
O367       Cu375   2.014       .  S
O368        C378   1.278       .  A
O368       Cu375   2.013       .  S
O369        C379   1.279       .  A
O369       Cu375   2.021       .  S
O370        C380   1.280       .  A
O370       Cu375   2.014       .  S
O371        C380   1.276       .  A
O371       Cu376   2.006       .  S
O372        C379   1.277       .  A
O372       Cu376   2.005       .  S
O373        C378   1.277       .  A
O373       Cu376   2.013       .  S
O374        C377   1.277       .  A
O374       Cu376   2.010       .  S
Cu375      Cu376   2.373       .  S
C377        C685   1.470       .  S
C378        C681   1.471       .  S
C379        C698   1.476       .  S
C380        C702   1.476       .  S
O381        C391   1.274       .  A
O382        C392   1.279       .  A
O382       Cu389   2.020       .  S
O383       Cu389   2.018       .  S
O384        C394   1.279       .  A
O385        C394   1.275       .  A
O385       Cu390   2.002       .  S
O386        C393   1.276       .  A
O386       Cu390   2.000       .  S
O387        C392   1.277       .  A
O388        C391   1.282       .  A
O388       Cu390   2.039       .  S
C391        C677   1.475       .  S
C392        C673   1.476       .  S
C393        C666   1.467       .  S
C394        C669   1.468       .  S
O395        C405   1.278       .  A
O395       Cu403   2.027       .  S
O396        C406   1.278       .  A
O396       Cu403   2.006       .  S
O397        C407   1.279       .  A
O397       Cu403   2.019       .  S
O398        C408   1.279       .  A
O398       Cu403   2.022       .  S
O399        C408   1.278       .  A
O399       Cu404   2.008       .  S
O400        C407   1.276       .  A
O400       Cu404   2.009       .  S
O401        C406   1.278       .  A
O401       Cu404   2.019       .  S
O402        C405   1.279       .  A
O402       Cu404   2.000       .  S
Cu403      Cu404   2.374       .  S
C405        C678   1.483       .  S
C406        C674   1.479       .  S
C407        C657   1.473       .  S
C408        C661   1.476       .  S
O409        C419   1.278       .  A
O410        C420   1.278       .  A
O410       Cu417   2.009   1_556  S
O411        C421   1.278       .  A
O411       Cu417   2.008       .  S
O413       Cu418   2.022       .  S
O414        C421   1.278       .  A
O415        C420   1.277       .  A
O416        C419   1.278       .  A
O416       Cu418   2.010       .  S
C419        C653   1.476       .  S
C420        C649   1.473       .  S
C422        C642   1.475       .  S
O423        C433   1.278       .  A
O423       Cu431   2.021       .  S
O424        C434   1.278       .  A
O424       Cu431   2.006       .  S
O425        C435   1.277       .  A
O425       Cu431   2.012       .  S
O426        C436   1.278       .  A
O426       Cu431   2.006       .  S
O427        C436   1.276       .  A
O427       Cu432   2.004       .  S
O428        C435   1.278       .  A
O428       Cu432   2.012       .  S
O429        C434   1.278       .  A
O429       Cu432   2.016       .  S
O430        C433   1.277       .  A
O430       Cu432   1.995       .  S
Cu431      Cu432   2.376       .  S
C433        C650   1.476       .  S
C434        C654   1.477       .  S
C435        C638   1.472       .  S
C436        C634   1.467       .  S
O437        C447   1.279       .  A
O437       Cu445   2.013   1_554  S
O438        C448   1.276       .  A
O438       Cu445   2.009       .  S
O439        C449   1.277       .  A
O439       Cu445   1.996       .  S
O440        C450   1.279       .  A
O441        C450   1.278       .  A
O442        C449   1.279       .  A
O442       Cu446   2.024   1_556  S
O443        C448   1.278   1_554  A
O443       Cu446   2.010       .  S
O444        C447   1.277       .  A
O444       Cu446   2.014       .  S
Cu445      Cu446   2.375   1_556  S
C447        C617   1.476       .  S
C448        C621   1.471       .  S
C449        C625   1.478       .  S
C450        C629   1.480       .  S
O451        C461   1.279       .  A
O451       Cu459   2.016       .  S
O452        C462   1.276       .  A
O452       Cu459   1.996       .  S
O453        C463   1.277       .  A
O453       Cu459   2.013       .  S
O454        C464   1.278       .  A
O454       Cu459   2.009       .  S
O455        C464   1.277       .  A
O455       Cu460   2.013       .  S
O456        C463   1.279       .  A
O456       Cu460   2.022       .  S
O457        C462   1.280       .  A
O457       Cu460   2.026       .  S
O458        C461   1.277       .  A
O458       Cu460   2.006       .  S
Cu459      Cu460   2.376       .  S
C461        C626   1.475       .  S
C462        C630   1.474       .  S
C463        C613   1.476       .  S
C464        C609   1.471       .  S
O465       Cu473   2.005       .  S
O466       Cu473   2.010       .  S
O467       Cu473   2.014       .  S
O468       Cu473   2.006       .  S
O469        C478   1.277       .  A
O469       Cu474   2.013       .  S
O470        C477   1.278       .  A
O470       Cu474   2.005       .  S
O471        C476   1.277       .  A
O471       Cu474   2.004       .  S
O472        C475   1.277       .  A
O472       Cu474   2.015       .  S
C475        C601   1.479       .  S
C476        C693   1.471       .  S
C477        C605   1.474       .  S
C478        C670   1.471       .  S
O479        C489   1.279       .  A
O479       Cu487   2.019       .  S
O480        C490   1.279       .  A
O480       Cu487   2.024       .  S
O481        C491   1.279       .  A
O481       Cu487   2.009       .  S
O482        C492   1.278       .  A
O482       Cu487   2.019       .  S
O483        C492   1.277       .  A
O483       Cu488   2.006       .  S
O484        C491   1.277       .  A
O484       Cu488   2.013       .  S
O485        C490   1.276       .  A
O485       Cu488   2.007       .  S
O486        C489   1.278       .  A
O486       Cu488   2.014       .  S
Cu487      Cu488   2.375       .  S
C489        C597   1.479       .  S
C490        C662   1.474       .  S
C491        C593   1.477       .  S
C492        C686   1.473       .  S
O493        C503   1.281       .  A
O493       Cu501   2.022       .  S
O494        C504   1.278       .  A
O494       Cu501   2.014       .  S
O495        C505   1.276       .  A
O495       Cu501   2.005       .  S
O496        C506   1.276       .  A
O496       Cu501   1.998       .  S
O497       Cu502   2.020       .  S
O498       Cu502   2.011       .  S
O499       Cu502   2.006       .  S
O500       Cu502   2.015       .  S
C503        C589   1.477       .  S
C504        C646   1.470       .  S
C505        C606   1.473       .  S
C506        C665   1.468       .  S
O507        C517   1.279       .  A
O507       Cu515   2.019       .  S
O508        C518   1.279       .  A
O508       Cu515   2.011       .  S
O509        C519   1.277       .  A
O509       Cu515   2.003       .  S
O510        C520   1.277       .  A
O510       Cu515   2.006       .  S
O511        C520   1.278       .  A
O511       Cu516   2.011       .  S
O512        C519   1.278       .  A
O512       Cu516   2.020       .  S
O513        C518   1.279       .  A
O513       Cu516   2.021       .  S
O514        C517   1.277       .  A
O514       Cu516   2.009       .  S
Cu515      Cu516   2.374       .  S
C517        C658   1.475       .  S
C518        C598   1.481       .  S
C519        C637   1.473       .  S
C520        C585   1.473       .  S
O521        C531   1.280   1_556  A
O521       Cu529   2.022       .  S
O522        C532   1.279   1_556  A
O522       Cu529   2.017       .  S
O523        C533   1.279   1_556  A
O523       Cu529   2.010       .  S
O524        C534   1.278   1_556  A
O524       Cu529   2.016       .  S
O525       Cu530   2.013       .  S
O526       Cu530   2.022       .  S
O527       Cu530   2.009       .  S
O528       Cu530   1.997       .  S
C531        C590   1.477       .  S
C532        C641   1.476       .  S
C533        C581   1.480       .  S
C534        C622   1.469       .  S
O535        C545   1.278       .  A
O535       Cu543   2.016       .  S
O536        C546   1.277       .  A
O536       Cu543   2.009       .  S
O537        C547   1.278       .  A
O537       Cu543   2.017       .  S
O538        C548   1.278       .  A
O538       Cu543   2.004       .  S
O539        C548   1.276       .  A
O539       Cu544   2.007       .  S
O540        C547   1.277       .  A
O540       Cu544   1.999       .  S
O541        C546   1.280       .  A
O541       Cu544   2.025       .  S
O542        C545   1.279       .  A
O542       Cu544   2.013       .  S
Cu543      Cu544   2.375       .  S
C545        C578   1.479       .  S
C546        C614   1.476       .  S
C547        C586   1.476       .  S
C548        C633   1.466       .  S
O549        C559   1.275       .  A
O549       Cu557   1.997       .  S
O550        C560   1.276       .  A
O550       Cu557   2.005       .  S
O551        C561   1.277   1_556  A
O551       Cu557   1.999       .  S
O552        C562   1.277       .  A
O552       Cu557   2.009       .  S
O553       Cu558   2.023       .  S
O554       Cu558   2.026       .  S
O555       Cu558   2.002       .  S
O556       Cu558   2.008       .  S
C559        C618   1.471       .  S
C560        C582   1.477       .  S
C561        C690   1.470       .  S
C562        C602   1.475       .  S
O563        C573   1.277       .  A
O563       Cu571   2.012       .  S
O564        C574   1.277       .  A
O564       Cu571   2.004       .  S
O565        C575   1.280       .  A
O565       Cu571   2.022       .  S
O566        C576   1.278       .  A
O566       Cu571   2.012       .  S
O567        C576   1.277       .  A
O567       Cu572   2.011       .  S
O568        C575   1.276       .  A
O568       Cu572   2.004       .  S
O569        C574   1.279       .  A
O569       Cu572   2.021       .  S
O570        C573   1.279       .  A
O570       Cu572   2.012       .  S
Cu571      Cu572   2.375       .  S
C573        C594   1.477       .  S
C574        C682   1.473       .  S
C575        C577   1.478       .  S
C576        C610   1.471       .  S
C577        C578   1.344   1_565  D
C577        H579   1.087       .  S
C578        H580   1.087   1_545  S
C581        C582   1.345   1_544  D
C581        H583   1.086   1_545  S
C585        C586   1.345   1_655  D
C585        H587   1.087   1_655  S
C586        H588   1.087       .  S
C593        C594   1.345   1_655  D
C593        H595   1.087       .  S
C594        H596   1.087   1_455  S
C597        C598   1.347   1_565  D
C597        H599   1.087   1_565  S
C598        H600   1.086       .  S
C605        C606   1.343   1_565  D
C606        H608   1.087       .  S
C609        C610   1.341       .  D
C609        H611   1.087       .  S
C610        H612   1.087       .  S
C613        C614   1.342       .  D
C613        H615   1.087       .  S
C614        H616   1.087       .  S
C617        C618   1.340   1_554  D
C617        H619   1.087       .  S
C621        C622   1.340   1_556  D
C622        H624   1.087       .  S
C625        C626   1.346       .  D
C625        H627   1.086       .  S
C626        H628   1.087       .  S
C629        C630   1.345       .  D
C629        H631   1.086       .  S
C630        H632   1.087       .  S
C633        C634   1.339       .  D
C633        H635   1.087       .  S
C634        H636   1.087       .  S
C637        C638   1.343       .  D
C637        H639   1.087       .  S
C638        H640   1.087       .  S
C641        C642   1.342       .  D
C642        H644   1.087   1_554  S
C645        C646   1.341       .  D
C645        H647   1.087       .  S
C649        C650   1.345       .  D
C649        H651   1.087       .  S
C650        H652   1.086       .  S
C653        C654   1.345       .  D
C653        H655   1.087       .  S
C654        H656   1.087       .  S
C657        C658   1.341       .  D
C657        H659   1.087       .  S
C658        H660   1.087       .  S
C661        C662   1.343       .  D
C661        H663   1.087       .  S
C662        H664   1.087       .  S
C665        C666   1.341       .  D
C665        H667   1.087       .  S
C669        C670   1.340       .  D
C669        H671   1.087       .  S
C673        C674   1.345       .  D
C673        H675   1.087       .  S
C674        H676   1.086       .  S
C677        C678   1.344       .  D
C677        H679   1.087       .  S
C678        H680   1.086       .  S
C681        C682   1.342       .  D
C681        H683   1.087       .  S
C682        H684   1.087       .  S
C685        C686   1.341       .  D
C685        H687   1.087       .  S
C686        H688   1.087       .  S
C689        C690   1.341   1_556  D
C689        H691   1.087       .  S
C693        C694   1.341       .  D
C693        H695   1.087       .  S
C697        C698   1.347       .  D
C697        H699   1.086       .  S
C698        H700   1.087       .  S
C701        C702   1.342       .  D
C701        H703   1.087       .  S
C702        H704   1.087       .  S
