geometry optimzed in LAMMPS
_audit_creation_date              2020-12-01 
_audit_creation_method            'lammps2cif' 
_symmetry_space_group_name_H-M    'P1' 
_symmetry_Int_Tables_number       1 
_symmetry_cell_setting            triclinic 
loop_ 
_symmetry_equiv_pos_as_xyz 
  x,y,z 
_cell_length_a                    35.87414983 
_cell_length_b                    35.72003597233846 
_cell_length_c                    27.18124610626516 
_cell_angle_alpha                 89.7927630956202 
_cell_angle_beta                  90.21569266163011 
_cell_angle_gamma                 89.65943942628182 
loop_ 
_atom_site_label 
_atom_site_type_symbol 
_atom_site_fract_x 
_atom_site_fract_y 
_atom_site_fract_z 
_atom_site_charge 
Fe1        Fe  0.31174152  0.19653368  0.43518789     1.65800
Fe2        Fe  0.35549662  0.15568150  0.33877953     1.73200
Fe3        Fe  0.29144561  0.22458283  0.31908438     1.54400
O4          O  0.24306349  0.22654693  0.36310976    -0.82500
O5          O  0.38312228  0.19565211  0.29830721    -0.80800
O6          O  0.25500422  0.19255462  0.43018462    -0.85000
O7          O  0.30809657  0.25433873  0.43168937    -0.79900
O8          O  0.27113341  0.17933191  0.28008001    -0.81600
O9          O  0.39485782  0.16457162  0.39403055    -0.84400
C10         C  0.30980893  0.27964956  0.39880003     0.96400
C11         C  0.23311622  0.21223296  0.40407689     1.03800
O12         O  0.31920498  0.19195312  0.36431032    -1.13400
O13         O  0.33024168  0.11244380  0.37624856    -0.75800
O14         O  0.31346951  0.13885585  0.44703267    -0.79300
O15         O  0.31103921  0.27201364  0.35331126    -0.80000
C16         C  0.31704911  0.11034628  0.41942120     0.95300
O17         O  0.36731858  0.20333791  0.44664999    -0.77900
O18         O  0.32237113  0.14330964  0.27841984    -0.83100
C19         C  0.36878365  0.21723588  0.26627254     0.97900
C20         C  0.29076820  0.15322481  0.26129758     1.03800
O21         O  0.33507676  0.22824443  0.26894849    -0.78800
C22         C  0.39608542  0.18853846  0.42835182     1.02100
C23         C  0.27017556  0.03623309  0.01272345     0.79400
N24         N  0.27664882  0.04933360  0.05922220    -0.78900
C25         C  0.26128539  0.08249760  0.07372582     0.81800
N26         N  0.23975829  0.10193983  0.04151208    -0.78900
C27         C  0.23281125  0.08960563  0.99533959     0.81900
N28         N  0.24840512  0.05663308  0.98093216    -0.80600
C29         C  0.46100960  0.24097720  0.00175042     0.79400
N30         N  0.43281076  0.25346926  0.97247170    -0.78900
C31         C  0.39985845  0.26398849  0.99264765     0.81800
N32         N  0.39474359  0.26063475  0.04195214    -0.78900
C33         C  0.42281691  0.24818945  0.07156220     0.81900
N34         N  0.45603008  0.23847361  0.05121770    -0.80600
Fe35       Fe  0.30001906  0.81186325  0.92704292     1.65800
Fe36       Fe  0.35067983  0.85286998  0.83678161     1.73200
Fe37       Fe  0.27873599  0.79422274  0.80799263     1.54400
O38         O  0.27445646  0.74413617  0.84820513    -0.82500
O39         O  0.31605419  0.88477159  0.79220407    -0.80800
O40         O  0.30071602  0.75436596  0.92143232    -0.85000
O41         O  0.24234329  0.81304264  0.91794781    -0.79900
O42         O  0.32418342  0.77292196  0.77078987    -0.81600
O43         O  0.34242254  0.89143078  0.89405793    -0.84400
C44         C  0.21914707  0.81475953  0.88242483     0.96400
C45         C  0.28507592  0.73294526  0.89060341     1.03800
O46         O  0.30997280  0.81934838  0.85712677    -1.13400
O47         O  0.38928037  0.82347766  0.87846774    -0.75800
O48         O  0.35667836  0.80912070  0.94569633    -0.79300
O49         O  0.22946476  0.81364692  0.83794289    -0.80000
C50         C  0.38731299  0.81100854  0.92220509     0.95300
O51         O  0.29681617  0.86833252  0.93901494    -0.77900
O52         O  0.36408497  0.82048779  0.77527871    -0.83100
C53         C  0.29345823  0.87276083  0.75987450     0.97900
C54         C  0.35177069  0.79117579  0.75434301     1.03800
O55         O  0.27889376  0.84046014  0.76209072    -0.78800
C56         C  0.31788169  0.89515497  0.92741291     1.02100
C57         C  0.45636325  0.76265189  0.49767685     0.79400
N58         N  0.43311871  0.74269907  0.46829567    -0.78900
C59         C  0.39991421  0.73044202  0.48513319     0.81800
N60         N  0.38988154  0.73893048  0.53180413    -0.78900
C61         C  0.41259936  0.75861994  0.56193881     0.81900
N62         N  0.44609328  0.77061245  0.54480001    -0.80600
C63         C  0.26994429  0.96709736  0.49634071     0.79400
N64         N  0.25615742  0.94015050  0.46620668    -0.78900
C65         C  0.24682580  0.90613682  0.48487634     0.81800
N66         N  0.25162575  0.89917621  0.53372709    -0.78900
C67         C  0.26554798  0.92597163  0.56388941     0.81900
N68         N  0.27485659  0.95986087  0.54502481    -0.80600
Fe69       Fe  0.68129622  0.80471981  0.42686270     1.65800
Fe70       Fe  0.63891456  0.84804863  0.32856693     1.73200
Fe71       Fe  0.71121975  0.78626641  0.30988961     1.54400
O72         O  0.75856411  0.79520347  0.35211891    -0.82500
O73         O  0.62115362  0.81136106  0.27392339    -0.80800
O74         O  0.73870803  0.80490779  0.42852279    -0.85000
O75         O  0.68187100  0.74753359  0.41982245    -0.79900
O76         O  0.72309445  0.83415211  0.26795746    -0.81600
O77         O  0.59657959  0.82842839  0.37257629    -0.84400
C78         C  0.69169206  0.72420769  0.38724313     0.96400
C79         C  0.76460554  0.79972564  0.39774701     1.03800
O80         O  0.67719779  0.81299773  0.35495677    -1.13400
O81         O  0.65359988  0.88941688  0.37827749    -0.75800
O82         O  0.68273181  0.86115014  0.44111560    -0.79300
O83         O  0.70265658  0.73488994  0.34498795    -0.80000
C84         C  0.67171758  0.89029915  0.41854662     0.95300
O85         O  0.62438565  0.80179136  0.43710996    -0.77900
O86         O  0.67474352  0.87252569  0.27974917    -0.83100
C87         C  0.63742328  0.78557054  0.24977735     0.97900
C88         C  0.70445961  0.86370466  0.25761297     1.03800
O89         O  0.66943646  0.77297284  0.26107717    -0.78800
C90         C  0.59542161  0.81128097  0.41329424     1.02100
C91         C  0.73579815  0.97482821  0.00614304     0.79400
N92         N  0.73153524  0.96644297  0.05479062    -0.78900
C93         C  0.74385274  0.93300894  0.07299074     0.81800
N94         N  0.75930442  0.90766242  0.04210394    -0.78900
C95         C  0.76411851  0.91554997  0.99362992     0.81900
N96         N  0.75215551  0.94919655  0.97596218    -0.80600
C97         C  0.52587415  0.75315510  0.00178529     0.79400
N98         N  0.53802802  0.75749309  0.04890310    -0.78900
C99         C  0.57208394  0.74407079  0.06262040     0.81800
N100        N  0.59386129  0.72681438  0.02876569    -0.78900
C101        C  0.58238676  0.72297177  0.98151061     0.81900
N102        N  0.54841888  0.73659471  0.96794384    -0.80600
Fe103      Fe  0.68740783  0.19824590  0.92385769     1.65800
Fe104      Fe  0.64057661  0.15444163  0.83149791     1.73200
Fe105      Fe  0.71400735  0.21157116  0.80642507     1.54400
O106        O  0.71740301  0.26146082  0.84570423    -0.82500
O107        O  0.67347822  0.12483945  0.78313753    -0.80800
O108        O  0.68258843  0.25531779  0.91287052    -0.85000
O109        O  0.74458599  0.20169914  0.91897118    -0.79900
O110        O  0.66979758  0.23374618  0.76713614    -0.81600
O111        O  0.65490068  0.11408548  0.88507410    -0.84400
C112        C  0.76904559  0.19408224  0.88698958     0.96400
C113        C  0.70182881  0.27513776  0.88362109     1.03800
O114        O  0.68036532  0.18801565  0.85356851    -1.13400
O115        O  0.60096177  0.18007252  0.87503757    -0.75800
O116        O  0.63158129  0.19685533  0.94205101    -0.79300
O117        O  0.76079175  0.19024961  0.84187240    -0.80000
C118        C  0.60146986  0.19282036  0.91841576     0.95300
O119        O  0.69389246  0.14208680  0.93784286    -0.77900
O120        O  0.62474308  0.19075474  0.77438599    -0.83100
C121        C  0.69871553  0.13556791  0.75399722     0.97900
C122        C  0.63889901  0.21957735  0.75385427     1.03800
O123        O  0.71558149  0.16640030  0.75905384    -0.78800
C124        C  0.67882972  0.11302647  0.92007332     1.02100
C125        C  0.52802470  0.25789039  0.50663356     0.79400
N126        N  0.53884582  0.25422144  0.55452130    -0.78900
C127        C  0.57187848  0.26865026  0.56996998     0.81800
N128        N  0.59383828  0.28667904  0.53707342    -0.78900
C129        C  0.58399305  0.28954117  0.48907996     0.81900
N130        N  0.55119379  0.27479121  0.47400771    -0.80600
C131        C  0.72555269  0.03080115  0.49910859     0.79400
N132        N  0.72172006  0.03950819  0.54757897    -0.78900
C133        C  0.73287211  0.07316535  0.56498829     0.81800
N134        N  0.74853739  0.09829693  0.53414702    -0.78900
C135        C  0.75352610  0.08987531  0.48585257     0.81900
N136        N  0.74126771  0.05651498  0.46878533    -0.80600
Fe137      Fe  0.80563260  0.30549973  0.42814393     1.65800
Fe138      Fe  0.84672753  0.34872895  0.33314762     1.73200
Fe139      Fe  0.78246693  0.28140363  0.31255259     1.54400
O140        O  0.80015555  0.23230813  0.34532821    -0.82500
O141        O  0.81303203  0.36365523  0.27404280    -0.80800
O142        O  0.79451018  0.24861700  0.42352790    -0.85000
O143        O  0.74928378  0.31730409  0.42356436    -0.79900
O144        O  0.82611137  0.27623793  0.26281927    -0.81600
O145        O  0.82124773  0.39050088  0.37285385    -0.84400
C146        C  0.72560282  0.30123781  0.39594368     0.96400
C147        C  0.79710830  0.22378531  0.39034584     1.03800
O148        O  0.81155154  0.31185442  0.35756570    -1.13400
O149        O  0.88599720  0.33726706  0.38837859    -0.75800
O150        O  0.86125520  0.29239113  0.43501887    -0.79300
O151        O  0.73497350  0.28389325  0.35686550    -0.80000
C152        C  0.88911964  0.31056592  0.41938609     0.95300
O153        O  0.81578247  0.36166943  0.44439919    -0.77900
O154        O  0.87394863  0.31017322  0.29009667    -0.83100
C155        C  0.78159283  0.35397604  0.25676698     0.97900
C156        C  0.85943791  0.28794537  0.25933919     1.03800
O157        O  0.76262640  0.32747113  0.27484279    -0.78800
C158        C  0.81514668  0.39141758  0.41863753     1.02100
C159        C  0.95767620  0.26321320  0.00220686     0.79400
N160        N  0.93398330  0.24478778  0.97169730    -0.78900
C161        C  0.90098729  0.23156423  0.98845552     0.81800
N162        N  0.89193795  0.23689938  0.03646420    -0.78900
C163        C  0.91572030  0.25449790  0.06745953     0.81900
N164        N  0.94842440  0.26806991  0.05014596    -0.80600
C165        C  0.76206598  0.46689340  0.00471910     0.79400
N166        N  0.76576944  0.45515463  0.05232857    -0.78900
C167        C  0.75207315  0.42125481  0.06640614     0.81800
N168        N  0.73468661  0.39974807  0.03242994    -0.78900
C169        C  0.73197917  0.41052282  0.98481394     0.81900
N170        N  0.74614576  0.44401913  0.97081420    -0.80600
Fe171      Fe  0.18390093  0.30412016  0.93030916     1.65800
Fe172      Fe  0.13709844  0.34574620  0.83765494     1.73200
Fe173      Fe  0.19988627  0.27764947  0.81282903     1.54400
O174        O  0.25017874  0.27889049  0.85281859    -0.82500
O175        O  0.10676079  0.30515291  0.80101115    -0.80800
O176        O  0.24025261  0.31223357  0.92094837    -0.85000
O177        O  0.19144311  0.24659705  0.92717339    -0.79900
O178        O  0.21695330  0.32354149  0.77085611    -0.81600
O179        O  0.10190518  0.33820852  0.89731492    -0.84400
C180        C  0.18687985  0.22118795  0.89515376     0.96400
C181        C  0.26175299  0.29426345  0.89238123     1.03800
O182        O  0.17395142  0.30920664  0.86003218    -1.13400
O183        O  0.16657267  0.38792064  0.87203275    -0.75800
O184        O  0.17795029  0.36129520  0.94417821    -0.79300
O185        O  0.18399294  0.22901467  0.84962234    -0.80000
C186        C  0.17777501  0.38995348  0.91629799     0.95300
O187        O  0.12861275  0.29394886  0.94321394    -0.77900
O188        O  0.16535361  0.35843460  0.77385499    -0.83100
C189        C  0.11860486  0.28173853  0.76952597     0.97900
C190        C  0.19619553  0.34979384  0.75415945     1.03800
O191        O  0.15289294  0.27215860  0.76786455    -0.78800
C192        C  0.10009117  0.31189100  0.92865371     1.02100
C193        C  0.22824750  0.46807667  0.50653755     0.79400
N194        N  0.22018418  0.45845997  0.55401232    -0.78900
C195        C  0.23228217  0.42499022  0.57250814     0.81800
N196        N  0.25135743  0.40108019  0.54330831    -0.78900
C197        C  0.25975656  0.41042951  0.49635417     0.81900
N198        N  0.24801385  0.44386565  0.47820349    -0.80600
C199        C  0.02980924  0.26467391  0.50437053     0.79400
N200        N  0.03100079  0.26324445  0.55443075    -0.78900
C201        C  0.06246832  0.25179930  0.57824945     0.81800
N202        N  0.09258037  0.24166504  0.55104701    -0.78900
C203        C  0.09203897  0.24321728  0.50102167     0.81900
N204        N  0.06042530  0.25491982  0.47775731    -0.80600
Fe205      Fe  0.18616661  0.69175527  0.42501708     1.65800
Fe206      Fe  0.13960850  0.64927561  0.33129290     1.73200
Fe207      Fe  0.21149313  0.70846020  0.30729698     1.54400
O208        O  0.21429760  0.75803887  0.34792857    -0.82500
O209        O  0.17581178  0.61862388  0.28797084    -0.80800
O210        O  0.18433326  0.74901898  0.41839032    -0.85000
O211        O  0.24326468  0.69334798  0.42032088    -0.79900
O212        O  0.16644711  0.72965270  0.26756653    -0.81600
O213        O  0.14940198  0.60958530  0.38678898    -0.84400
C214        C  0.26785051  0.68904104  0.38750263     0.96400
C215        C  0.20210855  0.76997710  0.38899111     1.03800
O216        O  0.17886236  0.68342057  0.35434201    -1.13400
O217        O  0.09930054  0.67767855  0.37156818    -0.75800
O218        O  0.12970297  0.69275618  0.44030818    -0.79300
O219        O  0.25945771  0.68842412  0.34204250    -0.80000
C220        C  0.09998851  0.69073420  0.41500473     0.95300
O221        O  0.19102966  0.63520485  0.43725346    -0.77900
O222        O  0.12609357  0.68232028  0.27032848    -0.83100
C223        C  0.19946644  0.63057770  0.25715577     0.97900
C224        C  0.13838426  0.71210866  0.25050250     1.03800
O225        O  0.21341202  0.66310262  0.26000966    -0.78800
C226        C  0.17413576  0.60697492  0.42032099     1.02100
C227        C  0.02975399  0.74338006  0.99521563     0.79400
N228        N  0.04239249  0.73729436  0.04211867    -0.78900
C229        C  0.07596660  0.75104178  0.05727048     0.81800
N230        N  0.09647478  0.77085264  0.02462277    -0.78900
C231        C  0.08516039  0.77633053  0.97751897     0.81900
N232        N  0.05171613  0.76243555  0.96293389    -0.80600
C233        C  0.22792015  0.53217321  0.99681693     0.79400
N234        N  0.23974479  0.56070791  0.96748195    -0.78900
C235        C  0.24850959  0.59434399  0.98750145     0.81800
N236        N  0.24511715  0.59933343  0.03673129    -0.78900
C237        C  0.23319342  0.57123489  0.06630258     0.81900
N238        N  0.22434950  0.53768012  0.04607773    -0.80600
Fe239      Fe  0.80037977  0.69525574  0.93012131     1.65800
Fe240      Fe  0.84666084  0.65092889  0.83881479     1.73200
Fe241      Fe  0.78501353  0.72130840  0.81181522     1.54400
O242        O  0.73422039  0.71766369  0.84918904    -0.82500
O243        O  0.87599659  0.68792984  0.79500172    -0.80800
O244        O  0.74385351  0.68637629  0.91961050    -0.85000
O245        O  0.79164174  0.75231371  0.92632338    -0.79900
O246        O  0.76933252  0.67675440  0.76767134    -0.81600
O247        O  0.88405083  0.66307914  0.89585575    -0.84400
C248        C  0.79596576  0.77778925  0.89442441     0.96400
C249        C  0.72223160  0.70202891  0.88834462     1.03800
O250        O  0.81053931  0.68904325  0.85972331    -1.13400
O251        O  0.81966305  0.60956984  0.87886929    -0.75800
O252        O  0.80698048  0.63920055  0.94809262    -0.79300
O253        O  0.79921465  0.77015326  0.84906174    -0.80000
C254        C  0.80912425  0.60930960  0.92340963     0.95300
O255        O  0.85613269  0.70586262  0.94295391    -0.77900
O256        O  0.81588707  0.63553060  0.77748044    -0.83100
C257        C  0.86438405  0.71322024  0.76558977     0.97900
C258        C  0.78777719  0.64810553  0.75394712     1.03800
O259        O  0.83203096  0.72778352  0.76856558    -0.78800
C260        C  0.88524309  0.68917408  0.92767199     1.02100
C261        C  0.77202338  0.53518122  0.50013015     0.79400
N262        N  0.75210251  0.55709418  0.46820098    -0.78900
C263        C  0.73860807  0.59084589  0.48294958     0.81800
N264        N  0.74528728  0.60219137  0.52956523    -0.78900
C265        C  0.76523804  0.58113777  0.56178813     0.81900
N266        N  0.77872453  0.54728699  0.54693365    -0.80600
C267        C  0.96439454  0.74632622  0.50814020     0.79400
N268        N  0.93643261  0.75951732  0.47865616    -0.78900
C269        C  0.90309021  0.77010107  0.49789288     0.81800
N270        N  0.89700719  0.76602870  0.54678569    -0.78900
C271        C  0.92425800  0.75247394  0.57671180     0.81900
N272        N  0.95786441  0.74278094  0.55728435    -0.80600
C273        C  0.89662262  0.69503867  0.68798397    -0.02700
C274        C  0.88736485  0.72331254  0.72227230     0.07000
C275        C  0.89337859  0.76118307  0.70965017    -0.02800
C276        C  0.90813149  0.77063076  0.66317894    -0.02800
C277        C  0.91485649  0.74252789  0.62801956     0.07100
C278        C  0.90825687  0.70479879  0.64028481    -0.03000
Br279      Br  0.90912782  0.66699104  0.58962306    -0.01500
Br280      Br  0.89001370  0.64269625  0.70385004    -0.01600
Br281      Br  0.91765458  0.82219355  0.64662162    -0.01600
Br282      Br  0.88046665  0.80018464  0.75549581    -0.01500
C283        C  0.77105369  0.59241264  0.70180063    -0.02700
C284        C  0.77910538  0.63085457  0.70565646     0.07000
C285        C  0.78427386  0.65215901  0.66236541    -0.02800
C286        C  0.78216862  0.63514045  0.61586685    -0.02800
C287        C  0.77275676  0.59681426  0.61163685     0.07100
C288        C  0.76736404  0.57550910  0.65506098    -0.03000
Br289      Br  0.75346536  0.52361455  0.65151164    -0.01500
Br290      Br  0.76346432  0.56340901  0.76090877    -0.01600
Br291      Br  0.79494789  0.66455952  0.55823595    -0.01600
Br292      Br  0.79576226  0.70484630  0.66600868    -0.01500
C293        C  0.93395288  0.73872377  0.93315044    -0.02700
C294        C  0.92216555  0.70230632  0.94545628     0.07000
C295        C  0.94602579  0.67884933  0.97315384    -0.02800
C296        C  0.98124599  0.69191318  0.98909906    -0.02800
C297        C  0.99246775  0.72915540  0.97879774     0.07100
C298        C  0.96817405  0.75253888  0.95098387    -0.03000
Br299      Br  0.98024437  0.80439143  0.93871188    -0.01500
Br300      Br  0.90441459  0.76875787  0.88812621    -0.01600
Br301      Br  0.01476167  0.65752876  0.02204539    -0.01600
Br302      Br  0.93020328  0.62873833  0.98912112    -0.01500
C303        C  0.06817777  0.73938565  0.14942912    -0.02700
C304        C  0.09169495  0.74273992  0.10777766     0.07000
C305        C  0.13078672  0.73761567  0.11488434    -0.02800
C306        C  0.14540653  0.72770952  0.16136401    -0.02800
C307        C  0.12189636  0.72443634  0.20257188     0.07100
C308        C  0.08313541  0.72959762  0.19609722    -0.03000
Br309      Br  0.05014314  0.72292043  0.25109248    -0.01500
Br310      Br  0.01564383  0.75106301  0.14456218    -0.01600
Br311      Br  0.19777709  0.71443949  0.16691568    -0.01600
Br312      Br  0.16618173  0.74314866  0.06212395    -0.01500
C313        C  0.18045527  0.59274085  0.18354433    -0.02700
C314        C  0.20916437  0.60753735  0.21353650     0.07000
C315        C  0.24640594  0.60580897  0.19694128    -0.02800
C316        C  0.25451230  0.59227709  0.14950169    -0.02800
C317        C  0.22566611  0.57923471  0.11876025     0.07100
C318        C  0.18877838  0.57838719  0.13655610    -0.03000
Br319      Br  0.14876620  0.56138491  0.09449639    -0.01500
Br320      Br  0.12886194  0.59585530  0.20361516    -0.01600
Br321      Br  0.30519249  0.59253246  0.12592636    -0.01600
Br322      Br  0.28648872  0.62221735  0.23914385    -0.01500
C323        C  0.05112538  0.68673404  0.48001741    -0.02700
C324        C  0.06501265  0.70448768  0.43778008     0.07000
C325        C  0.04747919  0.73728956  0.42028279    -0.02800
C326        C  0.01530053  0.75148297  0.44373167    -0.02800
C327        C  0.00038292  0.73308295  0.48572870     0.07100
C328        C  0.01955211  0.70102872  0.50445119    -0.03000
Br329      Br  0.00400287  0.67522157  0.56334300    -0.01500
Br330      Br  0.07516090  0.64176039  0.50380268    -0.01600
Br331      Br  0.99408100  0.79795752  0.41946728    -0.01600
Br332      Br  0.06917103  0.76415807  0.36585670    -0.01500
C333        C  0.23772503  0.52621022  0.45558339    -0.02700
C334        C  0.21385485  0.50340493  0.48405698     0.07000
C335        C  0.17549598  0.51269615  0.48652496    -0.02800
C336        C  0.16173316  0.54547120  0.46348705    -0.02800
C337        C  0.18620946  0.56963855  0.43867982     0.07100
C338        C  0.22374062  0.55873873  0.43244972    -0.03000
Br339      Br  0.25506074  0.58649311  0.38767558    -0.01500
Br340      Br  0.28998563  0.51387646  0.44845211    -0.01600
Br341      Br  0.10911779  0.55596486  0.46376546    -0.01600
Br342      Br  0.14083926  0.47951651  0.51831282    -0.01500
C343        C  0.06491806  0.29084050  0.70919918    -0.02700
C344        C  0.09303889  0.26748319  0.72996497     0.07000
C345        C  0.10130206  0.23330418  0.70613709    -0.02800
C346        C  0.08753451  0.22629212  0.65837762    -0.02800
C347        C  0.06619376  0.25374547  0.63319476     0.07100
C348        C  0.05263479  0.28480511  0.66032778    -0.03000
Br349      Br  0.02053040  0.32201068  0.63029385    -0.01500
Br350      Br  0.04520843  0.33342575  0.74476203    -0.01600
Br351      Br  0.09762585  0.17859437  0.62773939    -0.01600
Br352      Br  0.13119093  0.19557049  0.73905437    -0.01500
C353        C  0.24611647  0.41239821  0.66147822    -0.02700
C354        C  0.22099021  0.41136741  0.62148745     0.07000
C355        C  0.18814882  0.39042996  0.62530724    -0.02800
C356        C  0.18071509  0.37008783  0.66838828    -0.02800
C357        C  0.20610795  0.37017536  0.70832330     0.07100
C358        C  0.23893195  0.39152007  0.70469915    -0.03000
Br359      Br  0.27382945  0.39222633  0.75871179    -0.01500
Br360      Br  0.29017197  0.44267873  0.65663611    -0.01600
Br361      Br  0.13668889  0.33987828  0.67036569    -0.01600
Br362      Br  0.15399331  0.38814261  0.57027970    -0.01500
C363        C  0.21964205  0.42784374  0.97287292    -0.02700
C364        C  0.19111545  0.42671071  0.93627465     0.07000
C365        C  0.17602603  0.46117031  0.91864021    -0.02800
C366        C  0.18798505  0.49548562  0.93866081    -0.02800
C367        C  0.21616738  0.49618380  0.97486588     0.07100
C368        C  0.23232175  0.46239806  0.99128504    -0.03000
Br369      Br  0.27345249  0.46373544  0.03754880    -0.01500
Br370      Br  0.24347802  0.38283390  0.99769378    -0.01600
Br371      Br  0.16383037  0.54167299  0.91854297    -0.01600
Br372      Br  0.13791592  0.46274907  0.86810073    -0.01500
C373        C  0.80915050  0.50601439  0.96083541    -0.02700
C374        C  0.77634723  0.50373816  0.98884403     0.07000
C375        C  0.75575962  0.53641202  0.99862516    -0.02800
C376        C  0.76780426  0.57127485  0.98026484    -0.02800
C377        C  0.79871251  0.57317244  0.94764374     0.07100
C378        C  0.81948860  0.54007581  0.93853793    -0.03000
Br379      Br  0.86320258  0.54081636  0.89723690    -0.01500
Br380      Br  0.84115083  0.46279648  0.95542462    -0.01600
Br381      Br  0.74098533  0.61558094  0.00070382    -0.01600
Br382      Br  0.70990200  0.53289112  0.03542963    -0.01500
C383        C  0.00450539  0.31437498  0.98791154    -0.02700
C384        C  0.99392000  0.27643714  0.98353926     0.07000
C385        C  0.01794834  0.25085418  0.96006553    -0.02800
C386        C  0.05163641  0.26324330  0.93989083    -0.02800
C387        C  0.06334244  0.30043051  0.94718686     0.07100
C388        C  0.03958767  0.32612972  0.97084344    -0.03000
Br389      Br  0.05523749  0.37727516  0.98025178    -0.01500
Br390      Br  0.97058674  0.35100392  0.01437706    -0.01600
Br391      Br  0.07975208  0.23010176  0.89783865    -0.01600
Br392      Br  0.00595277  0.19821009  0.95776635    -0.01500
C393        C  0.90346459  0.23420815  0.15447777    -0.02700
C394        C  0.90421657  0.26257033  0.11820312     0.07000
C395        C  0.89347148  0.29926543  0.13018619    -0.02800
C396        C  0.88350009  0.30807801  0.17850043    -0.02800
C397        C  0.87994407  0.27940885  0.21394112     0.07100
C398        C  0.89052841  0.24250716  0.20218465    -0.03000
Br399      Br  0.88857069  0.20403464  0.25199637    -0.01500
Br400      Br  0.91968691  0.18417512  0.13878507    -0.01600
Br401      Br  0.87418121  0.35971521  0.19513412    -0.01600
Br402      Br  0.88800067  0.33668092  0.07930727    -0.01500
C403        C  0.75779611  0.42704633  0.15967722    -0.02700
C404        C  0.75940014  0.40504722  0.11633041     0.07000
C405        C  0.76709821  0.36611310  0.12084360    -0.02800
C406        C  0.76978106  0.34921547  0.16735618    -0.02800
C407        C  0.76930538  0.37129613  0.21010199     0.07100
C408        C  0.76347184  0.41017188  0.20627660    -0.03000
Br409      Br  0.76198206  0.43970576  0.26559317    -0.01500
Br410      Br  0.74797372  0.48012412  0.15652412    -0.01600
Br411      Br  0.77581274  0.29541033  0.17179633    -0.01600
Br412      Br  0.77927018  0.33546284  0.06439631    -0.01500
C413        C  0.78040536  0.43015612  0.48165404    -0.02700
C414        C  0.80659467  0.42811230  0.44262326     0.07000
C415        C  0.82354684  0.46174201  0.42603518    -0.02800
C416        C  0.81466572  0.49616982  0.44853475    -0.02800
C417        C  0.78598800  0.49825853  0.48354211     0.07100
C418        C  0.76900973  0.46519963  0.50012128    -0.03000
Br419      Br  0.72845320  0.46805637  0.54633996    -0.01500
Br420      Br  0.75831312  0.38575959  0.50988495    -0.01600
Br421      Br  0.84347623  0.54032013  0.43408707    -0.01600
Br422      Br  0.85917960  0.46195382  0.37277121    -0.01500
C423        C  0.94907189  0.32611740  0.46247747    -0.02700
C424        C  0.92652224  0.29990423  0.43791885     0.07000
C425        C  0.93961818  0.26289447  0.43164072    -0.02800
C426        C  0.97287773  0.25111359  0.45463801    -0.02800
C427        C  0.99538793  0.27726059  0.47919045     0.07100
C428        C  0.98437374  0.31521386  0.48058548    -0.03000
Br429      Br  0.01857332  0.35258841  0.50400323    -0.01500
Br430      Br  0.93077347  0.37621727  0.47399204    -0.01600
Br431      Br  0.98674610  0.19887523  0.45430851    -0.01600
Br432      Br  0.91377190  0.22917542  0.38820074    -0.01500
C433        C  0.80224585  0.13795994  0.47125964    -0.02700
C434        C  0.77164341  0.11763156  0.45308931     0.07000
C435        C  0.75707239  0.12682121  0.40602714    -0.02800
C436        C  0.76953837  0.15931612  0.38145875    -0.02800
C437        C  0.79434634  0.18396694  0.40559346     0.07100
C438        C  0.81239762  0.17185091  0.44906180    -0.03000
Br439      Br  0.85073259  0.20168357  0.47938444    -0.01500
Br440      Br  0.83150687  0.11858719  0.52550054    -0.01600
Br441      Br  0.75039674  0.17073518  0.31641391    -0.01600
Br442      Br  0.71837344  0.09712190  0.37603481    -0.01500
C443        C  0.63053601  0.26403562  0.43141438    -0.02700
C444        C  0.61414838  0.29575811  0.45329650     0.07000
C445        C  0.63207970  0.33061761  0.44988279    -0.02800
C446        C  0.66719912  0.33323133  0.42683485    -0.02800
C447        C  0.68596150  0.30038371  0.41150289     0.07100
C448        C  0.66722100  0.26577634  0.41397387    -0.03000
Br449      Br  0.69314404  0.21944310  0.40173547    -0.01500
Br450      Br  0.60405304  0.21702123  0.42867332    -0.01600
Br451      Br  0.68899069  0.38164892  0.41537382    -0.01600
Br452      Br  0.60846112  0.37440039  0.47718778    -0.01500
C453        C  0.81687339  0.17640501  0.95037989    -0.02700
C454        C  0.80835589  0.19248530  0.90405302     0.07000
C455        C  0.83593328  0.21357331  0.87967458    -0.02800
C456        C  0.86743996  0.22601589  0.90612412    -0.02800
C457        C  0.87375828  0.21318091  0.95494603     0.07100
C458        C  0.85063321  0.18481326  0.97392036    -0.03000
Br459      Br  0.86530375  0.15657449  0.03163367    -0.01500
Br460      Br  0.78188184  0.14433650  0.98387006    -0.01600
Br461      Br  0.89866210  0.26355726  0.87615507    -0.01600
Br462      Br  0.82952040  0.22818746  0.81151905    -0.01500
C463        C  0.68648346  0.37158843  0.93698477    -0.02700
C464        C  0.72347494  0.38158391  0.94808164     0.07000
C465        C  0.75315507  0.36000712  0.92952071    -0.02800
C466        C  0.74595563  0.32696000  0.90358860    -0.02800
C467        C  0.70896748  0.31471148  0.89688335     0.07100
C468        C  0.67934247  0.33872425  0.90996392    -0.03000
Br469      Br  0.62970489  0.32782878  0.88722959    -0.01500
Br470      Br  0.64584352  0.40168177  0.96106394    -0.01600
Br471      Br  0.78748091  0.29807901  0.88010068    -0.01600
Br472      Br  0.80407520  0.37327112  0.94428021    -0.01500
C473        C  0.67818268  0.10993154  0.67317227    -0.02700
C474        C  0.70641555  0.11338171  0.70931478     0.07000
C475        C  0.74282350  0.10074151  0.69898168    -0.02800
C476        C  0.75135071  0.08616702  0.65221592    -0.02800
C477        C  0.72355233  0.08446363  0.61560814     0.07100
C478        C  0.68692267  0.09606044  0.62623070    -0.03000
Br479      Br  0.64941819  0.09608109  0.57494863    -0.01500
Br480      Br  0.62793268  0.12688273  0.68601974    -0.01600
Br481      Br  0.80121354  0.06926011  0.63792150    -0.01600
Br482      Br  0.78085953  0.10317907  0.74904468    -0.01500
C483        C  0.64159698  0.23221315  0.66409140    -0.02700
C484        C  0.62133597  0.23458896  0.70839519     0.07000
C485        C  0.58450779  0.24866730  0.70753841    -0.02800
C486        C  0.56828805  0.26081130  0.66261104    -0.02800
C487        C  0.58827819  0.25723810  0.61809557     0.07100
C488        C  0.62467363  0.24171284  0.61915104    -0.03000
Br489      Br  0.65089335  0.22927036  0.55906337    -0.01500
Br490      Br  0.69270213  0.21454900  0.66379804    -0.01600
Br491      Br  0.51927386  0.28329084  0.66240206    -0.01600
Br492      Br  0.55705672  0.25271830  0.76814245    -0.01500
C493        C  0.66583839  0.74160644  0.90422189    -0.02700
C494        C  0.68196521  0.70555132  0.90057266     0.07000
C495        C  0.66047656  0.67406350  0.91384076    -0.02800
C496        C  0.62546619  0.67909310  0.93675177    -0.02800
C497        C  0.61128400  0.71546247  0.94427963     0.07100
C498        C  0.63023825  0.74635129  0.92455108    -0.03000
Br499      Br  0.60867046  0.79594972  0.92918944    -0.01500
Br500      Br  0.69379108  0.78554100  0.88757897    -0.01600
Br501      Br  0.59678346  0.63665023  0.95806774    -0.01600
Br502      Br  0.67844846  0.62440257  0.89937015    -0.01500
C503        C  0.66976129  0.05591909  0.97289233    -0.02700
C504        C  0.69177036  0.07648412  0.93993006     0.07000
C505        C  0.72815439  0.06392503  0.92906087    -0.02800
C506        C  0.74305276  0.03186779  0.95245280    -0.02800
C507        C  0.72088326  0.01058362  0.98498494     0.07100
C508        C  0.68391606  0.02278096  0.99473539    -0.03000
Br509      Br  0.65143908  0.99388115  0.03614296    -0.01500
Br510      Br  0.62039002  0.07380594  0.98859844    -0.01600
Br511      Br  0.79485433  0.01897619  0.94213929    -0.01600
Br512      Br  0.75731048  0.09016815  0.88054744    -0.01500
C513        C  0.76469630  0.87870486  0.91329148    -0.02700
C514        C  0.77957451  0.88582292  0.96076281     0.07000
C515        C  0.80702317  0.86120361  0.97969398    -0.02800
C516        C  0.81326203  0.82623976  0.95751597    -0.02800
C517        C  0.79581688  0.81737029  0.91220422     0.07100
C518        C  0.77459301  0.84552882  0.88800207    -0.03000
Br519      Br  0.75746681  0.83865184  0.82114121    -0.01500
Br520      Br  0.72850557  0.91212162  0.88348204    -0.01600
Br521      Br  0.84541251  0.79070964  0.99099862    -0.01600
Br522      Br  0.83753314  0.87599559  0.03510314    -0.01500
C523        C  0.81967732  0.82311632  0.44614066    -0.02700
C524        C  0.80306041  0.79515499  0.41701679     0.07000
C525        C  0.82132322  0.76027596  0.41155624    -0.02800
C526        C  0.85598266  0.75351897  0.43426419    -0.02800
C527        C  0.87152360  0.78064772  0.46552160     0.07100
C528        C  0.85367170  0.81571470  0.47074546    -0.03000
Br529      Br  0.87586525  0.85345903  0.51184464    -0.01500
Br530      Br  0.79529481  0.87106457  0.45339350    -0.01600
Br531      Br  0.88055735  0.70566614  0.42553265    -0.01600
Br532      Br  0.79652020  0.71937767  0.37953106    -0.01500
C533        C  0.71750851  0.65795364  0.37703922    -0.02700
C534        C  0.69350634  0.68349224  0.40175652     0.07000
C535        C  0.67630230  0.67112775  0.44597125    -0.02800
C536        C  0.68789471  0.63758865  0.46869177    -0.02800
C537        C  0.71805716  0.61690274  0.44947858     0.07100
C538        C  0.73127227  0.62588092  0.40199562    -0.03000
Br539      Br  0.77099015  0.59713070  0.37256076    -0.01500
Br540      Br  0.73249170  0.66587496  0.30944371    -0.01600
Br541      Br  0.66292111  0.62048941  0.52768908    -0.01600
Br542      Br  0.63725835  0.69951262  0.47794557    -0.01500
C543        C  0.75083442  0.90071173  0.20641985    -0.02700
C544        C  0.71449731  0.88673980  0.21388542     0.07000
C545        C  0.68724605  0.89216382  0.17650941    -0.02800
C546        C  0.69766008  0.90597815  0.13024491    -0.02800
C547        C  0.73347219  0.92055716  0.12300048     0.07100
C548        C  0.75974263  0.91908684  0.16175305    -0.03000
Br549      Br  0.80788611  0.94176178  0.15315207    -0.01500
Br550      Br  0.78805514  0.89560772  0.25734631    -0.01600
Br551      Br  0.66431042  0.90000427  0.07489464    -0.01600
Br552      Br  0.63543450  0.87931527  0.18626637    -0.01500
C553        C  0.64049006  0.77820827  0.15881668    -0.02700
C554        C  0.62067460  0.77239708  0.20301030     0.07000
C555        C  0.58506283  0.75592308  0.20111214    -0.02800
C556        C  0.56945132  0.74538866  0.15541803    -0.02800
C557        C  0.58829630  0.75363488  0.11121721     0.07100
C558        C  0.62350497  0.77105101  0.11328515    -0.03000
Br559      Br  0.64761756  0.78875025  0.05413184    -0.01500
Br560      Br  0.69124327  0.79624704  0.15946996    -0.01600
Br561      Br  0.52324438  0.71807888  0.15357819    -0.01600
Br562      Br  0.55864939  0.74579190  0.26104071    -0.01500
C563        C  0.70992858  0.94782478  0.41278005    -0.02700
C564        C  0.68323887  0.92686855  0.43837666     0.07000
C565        C  0.67092745  0.93894404  0.48462305    -0.02800
C566        C  0.68361898  0.97312461  0.50422757    -0.02800
C567        C  0.71147467  0.99427903  0.47916697     0.07100
C568        C  0.72536029  0.98020001  0.43369336    -0.03000
Br569      Br  0.76789256  0.00180508  0.40033505    -0.01500
Br570      Br  0.72701546  0.93081045  0.34944880    -0.01600
Br571      Br  0.66057194  0.98969706  0.56471618    -0.01600
Br572      Br  0.63615096  0.90835689  0.52080286    -0.01500
C573        C  0.18542874  0.82914997  0.43467690    -0.02700
C574        C  0.21095943  0.80890479  0.40520718     0.07000
C575        C  0.24675037  0.82441654  0.39673247    -0.02800
C576        C  0.25665924  0.85887541  0.41814649    -0.02800
C577        C  0.23284791  0.87600334  0.45252237     0.07100
C578        C  0.19682330  0.86168908  0.45954872    -0.03000
Br579      Br  0.16283875  0.88713386  0.50308382    -0.01500
Br580      Br  0.13451501  0.81301440  0.44116123    -0.01600
Br581      Br  0.30352591  0.88186405  0.40150471    -0.01600
Br582      Br  0.28484757  0.79703373  0.36185303    -0.01500
C583        C  0.51532062  0.75003037  0.45184398    -0.02700
C584        C  0.49228812  0.77562079  0.47733988     0.07000
C585        C  0.50221931  0.81387425  0.47904549    -0.02800
C586        C  0.53555174  0.82599395  0.45683007    -0.02800
C587        C  0.55893817  0.80002982  0.43301089     0.07100
C588        C  0.54797372  0.76247753  0.42886530    -0.03000
Br589      Br  0.57631265  0.72871706  0.38815979    -0.01500
Br590      Br  0.50327785  0.69737268  0.44937100    -0.01600
Br591      Br  0.54851038  0.87829650  0.45700215    -0.01600
Br592      Br  0.46937236  0.85021554  0.50895354    -0.01500
C593        C  0.34945145  0.68338268  0.47540162    -0.02700
C594        C  0.37336452  0.70962930  0.45323511     0.07000
C595        C  0.36816994  0.71838518  0.40273240    -0.02800
C596        C  0.33587288  0.70594874  0.37788710    -0.02800
C597        C  0.30744922  0.68747855  0.40447871     0.07100
C598        C  0.31584760  0.67371047  0.45229571    -0.03000
Br599      Br  0.28119223  0.64287404  0.48847257    -0.01500
Br600      Br  0.36285663  0.66013762  0.53756702    -0.01600
Br601      Br  0.33055550  0.71622746  0.30828900    -0.01600
Br602      Br  0.40313420  0.74932672  0.36733766    -0.01500
C603        C  0.12224809  0.77573925  0.89858199    -0.02700
C604        C  0.11164132  0.79409796  0.94242345     0.07000
C605        C  0.13146422  0.82625989  0.95715721    -0.02800
C606        C  0.16486333  0.83616659  0.93338743    -0.02800
C607        C  0.17856549  0.81425604  0.89434321     0.07100
C608        C  0.15533511  0.78621034  0.87413127    -0.03000
Br609      Br  0.17069058  0.75852178  0.81660116    -0.01500
Br610      Br  0.09445327  0.73328475  0.87474192    -0.01600
Br611      Br  0.19222659  0.87963357  0.95443421    -0.01600
Br612      Br  0.11319847  0.85634472  0.01085742    -0.01500
C613        C  0.24220482  0.69269351  0.93818632    -0.02700
C614        C  0.27412171  0.69527823  0.90838221     0.07000
C615        C  0.29584701  0.66287822  0.89997336    -0.02800
C616        C  0.28688751  0.62889942  0.92417287    -0.02800
C617        C  0.25588371  0.62731734  0.95597238     0.07100
C618        C  0.23251061  0.65882603  0.96067641    -0.03000
Br619      Br  0.18631669  0.65546900  0.99703127    -0.01500
Br620      Br  0.21219486  0.73608626  0.95056715    -0.01600
Br621      Br  0.31786412  0.58516244  0.91576320    -0.01600
Br622      Br  0.33819426  0.66533669  0.85684832    -0.01500
C623        C  0.31658140  0.90178849  0.68223041    -0.02700
C624        C  0.28650135  0.89471765  0.71446221     0.07000
C625        C  0.24964056  0.90053504  0.69775478    -0.02800
C626        C  0.24284772  0.91245696  0.64906536    -0.02800
C627        C  0.27274188  0.91739764  0.61628637     0.07100
C628        C  0.30962750  0.91237436  0.63306394    -0.03000
Br629      Br  0.35049734  0.91610438  0.58722718    -0.01500
Br630      Br  0.36741034  0.89274230  0.70305718    -0.01600
Br631      Br  0.19252114  0.92152220  0.62693874    -0.01600
Br632      Br  0.20836597  0.89067489  0.74115969    -0.01500
C633        C  0.40371463  0.76537968  0.70169291    -0.02700
C634        C  0.36758159  0.78066505  0.70589163     0.07000
C635        C  0.34698846  0.78891509  0.66269496    -0.02800
C636        C  0.36335283  0.78488761  0.61619073    -0.02800
C637        C  0.39896097  0.76839957  0.61172636     0.07100
C638        C  0.41878990  0.75783390  0.65468111    -0.03000
Br639      Br  0.46493117  0.73032977  0.64925940    -0.01500
Br640      Br  0.43133522  0.75283757  0.76046138    -0.01600
Br641      Br  0.33711084  0.80355738  0.55854156    -0.01600
Br642      Br  0.29552151  0.80424110  0.66571264    -0.01500
C643        C  0.45198116  0.82150316  0.95598157    -0.02700
C644        C  0.42199551  0.79708296  0.94628276     0.07000
C645        C  0.42573263  0.75872335  0.95811764    -0.02800
C646        C  0.45959865  0.74455996  0.97700170    -0.02800
C647        C  0.48952762  0.76879984  0.98607202     0.07100
C648        C  0.48529199  0.80751155  0.97717173    -0.03000
Br649      Br  0.52529367  0.84118937  0.99371386    -0.01500
Br650      Br  0.44757392  0.87406004  0.94024545    -0.01600
Br651      Br  0.46529979  0.69175449  0.99057135    -0.01600
Br652      Br  0.38517897  0.72493524  0.94626996    -0.01500
C653        C  0.49913210  0.19386045  0.95602527    -0.02700
C654        C  0.49647755  0.22867098  0.97989499     0.07000
C655        C  0.52811676  0.25121866  0.98475345    -0.02800
C656        C  0.56298032  0.23823311  0.96834877    -0.02800
C657        C  0.56568132  0.20416529  0.94183174     0.07100
C658        C  0.53340792  0.18188824  0.93616716    -0.03000
Br659      Br  0.53615380  0.13356702  0.90455065    -0.01500
Br660      Br  0.45581565  0.16230470  0.95129440    -0.01600
Br661      Br  0.60635012  0.26752881  0.98414737    -0.01600
Br662      Br  0.52283210  0.30119920  0.01087035    -0.01500
C663        C  0.34428668  0.24265022  0.94727418    -0.02700
C664        C  0.36762193  0.27223008  0.96078068     0.07000
C665        C  0.35884954  0.30908467  0.94603260    -0.02800
C666        C  0.32519088  0.31657409  0.92047520    -0.02800
C667        C  0.30051087  0.28703667  0.90949696     0.07100
C668        C  0.31100893  0.24999066  0.92181575    -0.03000
Br669      Br  0.27889279  0.20878958  0.90790284    -0.01500
Br670      Br  0.35734811  0.19184633  0.96552908    -0.01600
Br671      Br  0.31335225  0.36686474  0.89965795    -0.01600
Br672      Br  0.39286058  0.34890671  0.96164976    -0.01500
C673        C  0.31130169  0.00066069  0.95438853    -0.02700
C674        C  0.28756251  0.00061143  0.99559633     0.07000
C675        C  0.27938395  0.96625096  0.01855547    -0.02800
C676        C  0.29395896  0.93249594  0.99981521     0.03600
C677        C  0.31219483  0.93186533  0.95344499     0.07100
C678        C  0.32173983  0.96669618  0.93154823    -0.03000
Br679      Br  0.34721706  0.96949277  0.86918026    -0.01500
Br680      Br  0.33141406  0.04743561  0.93111768    -0.01600
Br681      Br  0.29051083  0.88794382  0.04042802    -0.01600
Br682      Br  0.24552720  0.96437643  0.07321550    -0.01500
C683        C  0.21959097  0.12028367  0.91155494    -0.02700
C684        C  0.21050758  0.11464309  0.96174071     0.07000
C685        C  0.18354097  0.13850343  0.98302769    -0.02800
C686        C  0.17356773  0.17240962  0.95994483    -0.02800
C687        C  0.18760572  0.18131897  0.91272402     0.07100
C688        C  0.20729130  0.15309931  0.88668044    -0.03000
Br689      Br  0.22159770  0.16056261  0.81876615    -0.01500
Br690      Br  0.25001379  0.08476366  0.87647054    -0.01600
Br691      Br  0.14174925  0.20684970  0.99519698    -0.01600
Br692      Br  0.15974362  0.12458475  0.04420229    -0.01500
C693        C  0.19466782  0.24498421  0.46713509    -0.02700
C694        C  0.19614392  0.22156708  0.42542954     0.07000
C695        C  0.16288705  0.20621447  0.40689373    -0.02800
C696        C  0.12851467  0.21340228  0.43077428    -0.02800
C697        C  0.12724891  0.23644642  0.47316905     0.07100
C698        C  0.16055437  0.25301821  0.49008425    -0.03000
Br699      Br  0.15993381  0.28879813  0.54338761    -0.01500
Br700      Br  0.23946982  0.26656711  0.49393459    -0.01600
Br701      Br  0.08391496  0.18995921  0.40641991    -0.01600
Br702      Br  0.16503186  0.17378451  0.35040257    -0.01500
C703        C  0.27959971  0.34289648  0.39207641    -0.02700
C704        C  0.30627432  0.31914217  0.41493937     0.07000
C705        C  0.32302719  0.33050884  0.45950908    -0.02800
C706        C  0.30979516  0.36245083  0.48410389    -0.02800
C707        C  0.27917816  0.38283370  0.46488179     0.07100
C708        C  0.26521645  0.37397206  0.41765207    -0.03000
Br709      Br  0.22316918  0.40094013  0.38981889    -0.01500
Br710      Br  0.25998683  0.33184798  0.32737127    -0.01600
Br711      Br  0.33344047  0.37778871  0.54479515    -0.01600
Br712      Br  0.36388905  0.30213190  0.48761276    -0.01500
C713        C  0.27118893  0.09710768  0.21293277    -0.02700
C714        C  0.27887309  0.13563293  0.21480386     0.07000
C715        C  0.28152184  0.15629916  0.17073822    -0.02800
C716        C  0.27810871  0.13828935  0.12502635    -0.02800
C717        C  0.26915865  0.09971649  0.12267765     0.07100
C718        C  0.26492189  0.07950158  0.16722570    -0.03000
Br719      Br  0.24805851  0.02864333  0.16704581    -0.01500
Br720      Br  0.26896179  0.06874798  0.27350174    -0.01600
Br721      Br  0.28857206  0.16676357  0.06598318    -0.01600
Br722      Br  0.29156999  0.20935186  0.17255371    -0.01500
C723        C  0.38817845  0.26387513  0.20186188    -0.02700
C724        C  0.39049167  0.22732661  0.22164542     0.07000
C725        C  0.40866183  0.19892344  0.19428550    -0.02800
C726        C  0.42094668  0.20620482  0.14597432    -0.02800
C727        C  0.41568677  0.24203052  0.12477441     0.07100
C728        C  0.40059276  0.27114760  0.15361511    -0.03000
Br729      Br  0.39698081  0.32121677  0.12697073    -0.01500
Br730      Br  0.36847762  0.30425045  0.24120445    -0.01600
Br731      Br  0.44149350  0.16563179  0.10749075    -0.01600
Br732      Br  0.41415155  0.14873895  0.22049936    -0.01500
C733        C  0.45497108  0.18367210  0.47804591    -0.02700
C734        C  0.43204956  0.20345377  0.44490880     0.07000
C735        C  0.44082784  0.24044434  0.43153350    -0.02800
C736        C  0.47065095  0.25886118  0.45428144    -0.02800
C737        C  0.49394078  0.23938763  0.48782457     0.07100
C738        C  0.48627901  0.20135067  0.49906222    -0.03000
Br739      Br  0.51891639  0.17249182  0.54143431    -0.01500
Br740      Br  0.44330794  0.13241124  0.49395920    -0.01600
Br741      Br  0.47748278  0.31166466  0.44166017    -0.01600
Br742      Br  0.41249860  0.26543296  0.38021280    -0.01500
C743        C  0.31709139  0.00701062  0.45475151    -0.02700
C744        C  0.28157454  0.00341112  0.47592155     0.07000
C745        C  0.25744712  0.03450361  0.47796725    -0.02800
C746        C  0.26869045  0.06918485  0.45839756    -0.02800
C747        C  0.30477505  0.07330502  0.43820126     0.07100
C748        C  0.32866874  0.04174234  0.43565296    -0.03000
Br749      Br  0.37767847  0.04576449  0.40717020    -0.01500
Br750      Br  0.35035039  0.96438912  0.45369529    -0.01600
Br751      Br  0.23311540  0.10983600  0.45575975    -0.01600
Br752      Br  0.20893281  0.02940392  0.50775978    -0.01500
loop_ 
_geom_bond_atom_site_label_1 
_geom_bond_atom_site_label_2 
_geom_bond_distance 
_geom_bond_site_symmetry_2 
_ccdc_geom_bond_type 
Fe1          O17   2.033       .  S
Fe1           O7   2.070       .  S
Fe1          O14   2.085       .  S
Fe1           O6   2.045       .  S
Fe1          O12   1.953       .  S
Fe2           O5   2.060       .  S
Fe2           O9   2.084       .  S
Fe2          O13   2.063       .  S
Fe2          O18   2.073       .  S
Fe2          O12   1.962       .  S
Fe3          O21   2.084       .  S
Fe3           O8   2.071       .  S
Fe3          O15   2.062       .  S
Fe3           O4   2.113       .  S
Fe3          O12   1.957       .  S
O4           C11   1.277       .  A
O5           C19   1.267       .  A
O6           C11   1.265       .  A
O7           C10   1.271       .  A
O8           C20   1.275       .  A
O9           C22   1.269       .  A
C10          O15   1.268       .  A
C10         C704   1.484       .  S
C11         C694   1.486       .  S
O13          C16   1.269       .  A
O14          C16   1.273       .  A
C16         C747   1.486       .  S
O17          C22   1.261       .  A
O18          C20   1.272       .  A
C19          O21   1.272       .  A
C19         C724   1.488       .  S
C20         C714   1.476       .  S
C22         C734   1.468       .  S
C23         C674   1.491   1_554  S
C23          N24   1.369       .  A
C23          N28   1.368   1_554  A
N24          C25   1.364       .  A
C25         C717   1.495       .  S
C25          N26   1.353       .  A
N26          C27   1.354   1_554  A
C27         C684   1.501       .  S
C27          N28   1.360       .  A
C29         C654   1.472   1_554  S
C29          N30   1.357   1_554  A
C29          N34   1.360       .  A
N30          C31   1.357       .  A
C31         C664   1.470       .  S
C31          N32   1.358   1_556  A
N32          C33   1.359       .  A
C33         C727   1.486       .  S
C33          N34   1.359       .  A
Fe35         O51   2.047       .  S
Fe35         O41   2.083       .  S
Fe35         O48   2.095       .  S
Fe35         O40   2.060       .  S
Fe35         O46   1.953       .  S
Fe36         O39   2.067       .  S
Fe36         O43   2.103       .  S
Fe36         O47   2.065       .  S
Fe36         O52   2.092       .  S
Fe36         O46   1.973       .  S
Fe37         O55   2.066       .  S
Fe37         O42   2.065       .  S
Fe37         O49   2.066       .  S
Fe37         O38   2.100       .  S
Fe37         O46   1.963       .  S
O38          C45   1.275       .  A
O39          C53   1.271       .  A
O40          C45   1.268       .  A
O41          C44   1.273       .  A
O42          C54   1.270       .  A
O43          C56   1.273       .  A
C44          O49   1.266       .  A
C44         C607   1.493       .  S
C45         C614   1.484       .  S
O47          C50   1.270       .  A
O48          C50   1.275       .  A
C50         C644   1.486       .  S
O51          C56   1.264       .  A
O52          C54   1.274       .  A
C53          O55   1.271       .  A
C53         C624   1.480       .  S
C54         C634   1.485       .  S
C56         C677   1.505       .  S
C57         C584   1.480       .  S
C57          N58   1.359       .  A
C57          N62   1.365       .  A
N58          C59   1.352       .  A
C59         C594   1.489       .  S
C59          N60   1.355       .  A
N60          C61   1.355       .  A
C61         C637   1.483       .  S
C61          N62   1.361       .  A
C63         C744   1.472   1_565  S
C63          N64   1.360       .  A
C63          N68   1.358       .  A
N64          C65   1.359       .  A
C65         C577   1.481       .  S
C65          N66   1.360       .  A
N66          C67   1.359       .  A
C67         C627   1.477       .  S
C67          N68   1.357       .  A
Fe69         O85   2.065       .  S
Fe69         O75   2.052       .  S
Fe69         O82   2.055       .  S
Fe69         O74   2.060       .  S
Fe69         O80   1.980       .  S
Fe70         O73   2.085       .  S
Fe70         O77   2.061       .  S
Fe70         O81   2.075       .  S
Fe70         O86   2.048       .  S
Fe70         O80   1.983       .  S
Fe71         O89   2.057       .  S
Fe71         O76   2.099       .  S
Fe71         O83   2.090       .  S
Fe71         O72   2.073       .  S
Fe71         O80   1.977       .  S
O72          C79   1.269       .  A
O73          C87   1.273       .  A
O74          C79   1.266       .  A
O75          C78   1.268       .  A
O76          C88   1.276       .  A
O77          C90   1.264       .  A
C78          O83   1.273       .  A
C78         C534   1.507       .  S
C79         C524   1.482       .  S
O81          C84   1.271       .  A
O82          C84   1.267       .  A
C84         C564   1.476       .  S
O85          C90   1.266       .  A
O86          C88   1.265       .  A
C87          O89   1.267       .  A
C87         C554   1.483       .  S
C88         C544   1.490       .  S
C90         C587   1.474       .  S
C91         C507   1.494   1_564  S
C91          N92   1.364       .  A
C91          N96   1.363   1_554  A
N92          C93   1.362       .  A
C93         C547   1.478       .  S
C93          N94   1.355       .  A
N94          C95   1.358   1_554  A
C95         C514   1.496       .  S
C95          N96   1.359       .  A
C97         C647   1.477   1_554  S
C97          N98   1.361       .  A
C97         N102   1.362   1_554  A
N98          C99   1.360       .  A
C99         C557   1.483       .  S
C99         N100   1.357       .  A
N100        C101   1.355   1_554  A
C101        C497   1.476       .  S
C101        N102   1.359       .  A
Fe103       O119   2.052       .  S
Fe103       O109   2.060       .  S
Fe103       O116   2.066       .  S
Fe103       O108   2.065       .  S
Fe103       O114   1.962       .  S
Fe104       O107   2.061       .  S
Fe104       O111   2.106       .  S
Fe104       O115   2.065       .  S
Fe104       O120   2.094       .  S
Fe104       O114   1.963       .  S
Fe105       O123   2.069       .  S
Fe105       O110   2.061       .  S
Fe105       O117   2.072       .  S
Fe105       O106   2.085       .  S
Fe105       O114   1.955       .  S
O106        C113   1.272       .  A
O107        C121   1.265       .  A
O108        C113   1.271       .  A
O109        C112   1.267       .  A
O110        C122   1.273       .  A
O111        C124   1.279       .  A
C112        O117   1.269       .  A
C112        C454   1.484       .  S
C113        C467   1.484       .  S
O115        C118   1.266       .  A
O116        C118   1.264       .  A
C118        C657   1.490       .  S
O119        C124   1.269       .  A
O120        C122   1.278       .  A
C121        O123   1.267       .  A
C121        C474   1.479       .  S
C122        C484   1.482       .  S
C124        C504   1.482       .  S
C125        C737   1.483       .  S
C125        N126   1.363       .  A
C125        N130   1.360       .  A
N126        C127   1.361       .  A
C127        C487   1.487       .  S
C127        N128   1.357       .  A
N128        C129   1.354       .  A
C129        C444   1.475       .  S
C129        N130   1.355       .  A
C131        C567   1.504   1_545  S
C131        N132   1.362       .  A
C131        N136   1.358       .  A
N132        C133   1.356       .  A
C133        C477   1.474       .  S
C133        N134   1.352       .  A
N134        C135   1.360       .  A
C135        C434   1.485       .  S
C135        N136   1.355       .  A
Fe137       O153   2.090       .  S
Fe137       O143   2.066       .  S
Fe137       O150   2.055       .  S
Fe137       O142   2.077       .  S
Fe137       O148   1.944       .  S
Fe138       O141   2.073       .  S
Fe138       O145   2.057       .  S
Fe138       O149   2.093       .  S
Fe138       O154   2.055       .  S
Fe138       O148   1.946       .  S
Fe139       O157   2.058       .  S
Fe139       O144   2.080       .  S
Fe139       O151   2.092       .  S
Fe139       O140   2.060       .  S
Fe139       O148   1.945       .  S
O140        C147   1.265       .  A
O141        C155   1.270       .  A
O142        C147   1.271       .  A
O143        C146   1.272       .  A
O144        C156   1.273       .  A
O145        C158   1.265       .  A
C146        O151   1.277       .  A
C146        C447   1.486       .  S
C147        C437   1.484       .  S
O149        C152   1.275       .  A
O150        C152   1.269       .  A
C152        C424   1.479       .  S
O153        C158   1.271       .  A
O154        C156   1.268       .  A
C155        O157   1.268       .  A
C155        C407   1.474       .  S
C156        C397   1.471       .  S
C158        C414   1.497       .  S
C159        C384   1.477   1_554  S
C159        N160   1.360   1_554  A
C159        N164   1.357       .  A
N160        C161   1.357       .  A
C161        C457   1.490       .  S
C161        N162   1.360   1_556  A
N162        C163   1.356       .  A
C163        C394   1.470       .  S
C163        N164   1.357       .  A
C165        C374   1.479   1_554  S
C165        N166   1.365       .  A
C165        N170   1.360   1_554  A
N166        C167   1.364       .  A
C167        C404   1.495       .  S
C167        N168   1.356       .  A
N168        C169   1.352   1_554  A
C169        C464   1.472       .  S
C169        N170   1.356       .  A
Fe171       O187   2.050       .  S
Fe171       O177   2.073       .  S
Fe171       O184   2.088       .  S
Fe171       O176   2.061       .  S
Fe171       O182   1.950       .  S
Fe172       O175   2.074       .  S
Fe172       O179   2.077       .  S
Fe172       O183   2.069       .  S
Fe172       O188   2.062       .  S
Fe172       O182   1.947       .  S
Fe173       O191   2.089       .  S
Fe173       O178   2.090       .  S
Fe173       O185   2.085       .  S
Fe173       O174   2.104       .  S
Fe173       O182   1.947       .  S
O174        C181   1.278       .  A
O175        C189   1.271       .  A
O176        C181   1.270       .  A
O177        C180   1.271       .  A
O178        C190   1.275       .  A
O179        C192   1.268       .  A
C180        O185   1.272       .  A
C180        C687   1.500       .  S
C181        C667   1.485       .  S
O183        C186   1.270       .  A
O184        C186   1.271       .  A
C186        C364   1.503       .  S
O187        C192   1.266       .  A
O188        C190   1.268       .  A
C189        O191   1.276       .  A
C189        C344   1.503       .  S
C190        C357   1.486       .  S
C192        C387   1.473       .  S
C193        C334   1.489       .  S
C193        N194   1.367       .  A
C193        N198   1.358       .  A
N194        C195   1.363       .  A
C195        C354   1.475       .  S
C195        N196   1.353       .  A
N196        C197   1.354       .  A
C197        C707   1.480       .  S
C197        N198   1.355       .  A
C199        C427   1.477   1_455  S
C199        N200   1.362       .  A
C199        N204   1.362       .  A
N200        C201   1.359       .  A
C201        C347   1.501       .  S
C201        N202   1.359       .  A
N202        C203   1.361       .  A
C203        C697   1.494       .  S
C203        N204   1.359       .  A
Fe205       O221   2.052       .  S
Fe205       O211   2.054       .  S
Fe205       O218   2.069       .  S
Fe205       O210   2.053       .  S
Fe205       O216   1.962       .  S
Fe206       O209   2.068       .  S
Fe206       O213   2.094       .  S
Fe206       O217   2.079       .  S
Fe206       O222   2.085       .  S
Fe206       O216   1.970       .  S
Fe207       O225   2.073       .  S
Fe207       O212   2.078       .  S
Fe207       O219   2.082       .  S
Fe207       O208   2.093       .  S
Fe207       O216   1.955       .  S
O208        C215   1.274       .  A
O209        C223   1.269       .  A
O210        C215   1.269       .  A
O211        C214   1.266       .  A
O212        C224   1.276       .  A
O213        C226   1.272       .  A
C214        O219   1.271       .  A
C214        C597   1.493       .  S
C215        C574   1.496       .  S
O217        C220   1.271       .  A
O218        C220   1.269       .  A
C220        C324   1.483       .  S
O221        C226   1.267       .  A
O222        C224   1.273       .  A
C223        O225   1.270       .  A
C223        C314   1.487       .  S
C224        C307   1.493       .  S
C226        C337   1.484       .  S
C227        C297   1.501   1_455  S
C227        N228   1.368   1_556  A
C227        N232   1.364       .  A
N228        C229   1.366       .  A
C229        C304   1.510       .  S
C229        N230   1.355       .  A
N230        C231   1.355   1_554  A
C231        C604   1.492       .  S
C231        N232   1.359       .  A
C233        C367   1.482       .  S
C233        N234   1.363       .  A
C233        N238   1.360   1_556  A
N234        C235   1.359       .  A
C235        C617   1.480       .  S
C235        N236   1.356   1_556  A
N236        C237   1.356       .  A
C237        C317   1.481       .  S
C237        N238   1.359       .  A
Fe239       O255   2.066       .  S
Fe239       O245   2.062       .  S
Fe239       O252   2.071       .  S
Fe239       O244   2.073       .  S
Fe239       O250   1.962       .  S
Fe240       O243   2.071       .  S
Fe240       O247   2.095       .  S
Fe240       O251   2.078       .  S
Fe240       O256   2.074       .  S
Fe240       O250   1.961       .  S
Fe241       O259   2.073       .  S
Fe241       O246   2.076       .  S
Fe241       O253   2.085       .  S
Fe241       O242   2.094       .  S
Fe241       O250   1.957       .  S
O242        C249   1.277       .  A
O243        C257   1.271       .  A
O244        C249   1.274       .  A
O245        C248   1.265       .  A
O246        C258   1.273       .  A
O247        C260   1.275       .  A
C248        O253   1.269       .  A
C248        C517   1.496       .  S
C249        C494   1.488       .  S
O251        C254   1.270       .  A
O252        C254   1.265       .  A
C254        C377   1.497       .  S
O255        C260   1.271       .  A
O256        C258   1.271       .  A
C257        O259   1.272       .  A
C257        C274   1.484       .  S
C258        C284   1.485       .  S
C260        C294   1.487       .  S
C261        C417   1.480       .  S
C261        N262   1.364       .  A
C261        N266   1.366       .  A
N262        C263   1.359       .  A
C263        C537   1.489       .  S
C263        N264   1.353       .  A
N264        C265   1.352       .  A
C265        C287   1.492       .  S
C265        N266   1.363       .  A
C267        C327   1.504   1_655  S
C267        N268   1.362       .  A
C267        N272   1.363       .  A
N268        C269   1.359       .  A
C269        C527   1.478       .  S
C269        N270   1.355       .  A
N270        C271   1.355       .  A
C271        C277   1.479       .  S
C271        N272   1.361       .  A
C273        C274   1.416       .  A
C273        C278   1.407       .  A
C273       Br280   1.933       .  S
C274        C275   1.412       .  A
C275        C276   1.412       .  A
C275       Br282   1.928       .  S
C276        C277   1.409       .  A
C276       Br281   1.927       .  S
C277        C278   1.409       .  A
C278       Br279   1.932       .  S
C283        C284   1.409       .  A
C283        C288   1.415       .  A
C283       Br290   1.930       .  S
C284        C285   1.412       .  A
C285        C286   1.406       .  A
C285       Br292   1.932       .  S
C286        C287   1.417       .  A
C286       Br291   1.941       .  S
C287        C288   1.417       .  A
C288       Br289   1.925       .  S
C293        C294   1.410       .  A
C293        C298   1.411       .  A
C293       Br300   1.934       .  S
C294        C295   1.408       .  A
C295        C296   1.416       .  A
C295       Br302   1.929       .  S
C296        C297   1.419       .  A
C296       Br301   1.929   1_656  S
C297        C298   1.418       .  A
C298       Br299   1.933       .  S
C303        C304   1.420       .  A
C303        C308   1.417       .  A
C303       Br310   1.932       .  S
C304        C305   1.426       .  A
C305        C306   1.409       .  A
C305       Br312   1.929       .  S
C306        C307   1.410       .  A
C306       Br311   1.940       .  S
C307        C308   1.412       .  A
C308       Br309   1.925       .  S
C313        C314   1.417       .  A
C313        C318   1.410       .  A
C313       Br320   1.934       .  S
C314        C315   1.413       .  A
C315        C316   1.409       .  A
C315       Br322   1.931       .  S
C316        C317   1.410       .  A
C316       Br321   1.930       .  S
C317        C318   1.411       .  A
C318       Br319   1.934       .  S
C323        C324   1.404       .  A
C323        C328   1.409       .  A
C323       Br330   1.927       .  S
C324        C325   1.407       .  A
C325        C326   1.413       .  A
C325       Br332   1.929       .  S
C326        C327   1.423       .  A
C326       Br331   1.935   1_455  S
C327        C328   1.424       .  A
C328       Br329   1.930       .  S
C333        C334   1.416       .  A
C333        C338   1.408       .  A
C333       Br340   1.934       .  S
C334        C335   1.416       .  A
C335        C336   1.411       .  A
C335       Br342   1.927       .  S
C336        C337   1.407       .  A
C336       Br341   1.922       .  S
C337        C338   1.410       .  A
C338       Br339   1.934       .  S
C343        C344   1.419       .  A
C343        C348   1.416       .  A
C343       Br350   1.937       .  S
C344        C345   1.414       .  A
C345        C346   1.411       .  A
C345       Br352   1.932       .  S
C346        C347   1.414       .  A
C346       Br351   1.932       .  S
C347        C348   1.419       .  A
C348       Br349   1.930       .  S
C353        C354   1.410       .  A
C353        C358   1.415       .  A
C353       Br360   1.925       .  S
C354        C355   1.403       .  A
C355        C356   1.403       .  A
C355       Br362   1.932       .  S
C356        C357   1.414       .  A
C356       Br361   1.919       .  S
C357        C358   1.410       .  A
C358       Br359   1.926       .  S
C363        C364   1.425       .  A
C363        C368   1.411       .  A
C363       Br370   1.935       .  S
C364        C365   1.423       .  A
C365        C366   1.411       .  A
C365       Br372   1.935       .  S
C366        C367   1.409       .  A
C366       Br371   1.935       .  S
C367        C368   1.406       .  A
C368       Br369   1.936   1_556  S
C373        C374   1.407       .  A
C373        C378   1.410       .  A
C373       Br380   1.925       .  S
C374        C375   1.404       .  A
C375        C376   1.411       .  A
C375       Br382   1.933   1_556  S
C376        C377   1.424       .  A
C376       Br381   1.932   1_556  S
C377        C378   1.417       .  A
C378       Br379   1.932       .  S
C383        C384   1.415   1_455  A
C383        C388   1.409       .  A
C383       Br390   1.925   1_456  S
C384        C385   1.409   1_655  A
C385        C386   1.402       .  A
C385       Br392   1.933       .  S
C386        C387   1.410       .  A
C386       Br391   1.931       .  S
C387        C388   1.408       .  A
C388       Br389   1.932       .  S
C393        C394   1.412       .  A
C393        C398   1.411       .  A
C393       Br400   1.926       .  S
C394        C395   1.404       .  A
C395        C396   1.399       .  A
C395       Br402   1.928       .  S
C396        C397   1.410       .  A
C396       Br401   1.928       .  S
C397        C398   1.408       .  A
C398       Br399   1.927       .  S
C403        C404   1.420       .  A
C403        C408   1.414       .  A
C403       Br410   1.928       .  S
C404        C405   1.421       .  A
C405        C406   1.402       .  A
C405       Br412   1.938       .  S
C406        C407   1.407       .  A
C406       Br411   1.936       .  S
C407        C408   1.407       .  A
C408       Br409   1.931       .  S
C413        C414   1.422       .  A
C413        C418   1.409       .  A
C413       Br420   1.935       .  S
C414        C415   1.422       .  A
C415        C416   1.411       .  A
C415       Br422   1.935       .  S
C416        C417   1.406       .  A
C416       Br421   1.931       .  S
C417        C418   1.405       .  A
C418       Br419   1.928       .  S
C423        C424   1.409       .  A
C423        C428   1.409       .  A
C423       Br430   1.930       .  S
C424        C425   1.412       .  A
C425        C426   1.406       .  A
C425       Br432   1.929       .  S
C426        C427   1.407       .  A
C426       Br431   1.928       .  S
C427        C428   1.411       .  A
C428       Br429   1.927   1_655  S
C433        C434   1.409       .  A
C433        C438   1.401       .  A
C433       Br440   1.930       .  S
C434        C435   1.417       .  A
C435        C436   1.413       .  A
C435       Br442   1.932       .  S
C436        C437   1.417       .  A
C436       Br441   1.935       .  S
C437        C438   1.411       .  A
C438       Br439   1.929       .  S
C443        C444   1.408       .  A
C443        C448   1.402       .  A
C443       Br450   1.936       .  S
C444        C445   1.408       .  A
C445        C446   1.413       .  A
C445       Br452   1.927       .  S
C446        C447   1.414       .  A
C446       Br451   1.927       .  S
C447        C448   1.412       .  A
C448       Br449   1.924       .  S
C453        C454   1.414       .  A
C453        C458   1.402       .  A
C453       Br460   1.933       .  S
C454        C455   1.413       .  A
C455        C456   1.412       .  A
C455       Br462   1.935       .  S
C456        C457   1.419       .  A
C456       Br461   1.932       .  S
C457        C458   1.411       .  A
C458       Br459   1.932   1_556  S
C463        C464   1.408       .  A
C463        C468   1.411       .  A
C463       Br470   1.924       .  S
C464        C465   1.407       .  A
C465        C466   1.402       .  A
C465       Br472   1.931       .  S
C466        C467   1.411       .  A
C466       Br471   1.920       .  S
C467        C468   1.409       .  A
C468       Br469   1.925       .  S
C473        C474   1.415       .  A
C473        C478   1.406       .  A
C473       Br480   1.932       .  S
C474        C475   1.409       .  A
C475        C476   1.409       .  A
C475       Br482   1.926       .  S
C476        C477   1.408       .  A
C476       Br481   1.926       .  S
C477        C478   1.407       .  A
C478       Br479   1.934       .  S
C483        C484   1.411       .  A
C483        C488   1.402       .  A
C483       Br490   1.935       .  S
C484        C485   1.411       .  A
C485        C486   1.416       .  A
C485       Br492   1.928       .  S
C486        C487   1.415       .  A
C486       Br491   1.929       .  S
C487        C488   1.416       .  A
C488       Br489   1.939       .  S
C493        C494   1.413       .  A
C493        C498   1.403       .  A
C493       Br500   1.921       .  S
C494        C495   1.414       .  A
C495        C496   1.415       .  A
C495       Br502   1.926       .  S
C496        C497   1.408       .  A
C496       Br501   1.926       .  S
C497        C498   1.405       .  A
C498       Br499   1.934       .  S
C503        C504   1.405       .  A
C503        C508   1.413       .  A
C503       Br510   1.929       .  S
C504        C505   1.410       .  A
C505        C506   1.409       .  A
C505       Br512   1.930       .  S
C506        C507   1.414       .  A
C506       Br511   1.934       .  S
C507        C508   1.420       .  A
C508       Br509   1.925   1_546  S
C513        C514   1.419       .  A
C513        C518   1.416       .  A
C513       Br520   1.932       .  S
C514        C515   1.411       .  A
C515        C516   1.406       .  A
C515       Br522   1.935   1_556  S
C516        C517   1.417       .  A
C516       Br521   1.933       .  S
C517        C518   1.417       .  A
C518       Br519   1.933       .  S
C523        C524   1.410       .  A
C523        C528   1.412       .  A
C523       Br530   1.930       .  S
C524        C525   1.413       .  A
C525        C526   1.405       .  A
C525       Br532   1.924       .  S
C526        C527   1.407       .  A
C526       Br531   1.934       .  S
C527        C528   1.411       .  A
C528       Br529   1.928       .  S
C533        C534   1.423       .  A
C533        C538   1.415       .  A
C533       Br540   1.937       .  S
C534        C535   1.423       .  A
C535        C536   1.406       .  A
C535       Br542   1.935       .  S
C536        C537   1.410       .  A
C536       Br541   1.938       .  S
C537        C538   1.413       .  A
C538       Br539   1.929       .  S
C543        C544   1.414       .  A
C543        C548   1.417       .  A
C543       Br550   1.927       .  S
C544        C545   1.419       .  A
C545        C546   1.402       .  A
C545       Br552   1.936       .  S
C546        C547   1.403       .  A
C546       Br551   1.932       .  S
C547        C548   1.411       .  A
C548       Br549   1.927       .  S
C553        C554   1.413       .  A
C553        C558   1.402       .  A
C553       Br560   1.935       .  S
C554        C555   1.411       .  A
C555        C556   1.414       .  A
C555       Br562   1.922       .  S
C556        C557   1.412       .  A
C556       Br561   1.929       .  S
C557        C558   1.412       .  A
C558       Br559   1.935       .  S
C563        C564   1.404       .  A
C563        C568   1.406       .  A
C563       Br570   1.929       .  S
C564        C565   1.403       .  A
C565        C566   1.411       .  A
C565       Br572   1.933       .  S
C566        C567   1.430       .  A
C566       Br571   1.936       .  S
C567        C568   1.427       .  A
C568       Br569   1.940   1_565  S
C573        C574   1.416       .  A
C573        C578   1.409       .  A
C573       Br580   1.927       .  S
C574        C575   1.421       .  A
C575        C576   1.410       .  A
C575       Br582   1.930       .  S
C576        C577   1.407       .  A
C576       Br581   1.930       .  S
C577        C578   1.406       .  A
C578       Br579   1.928       .  S
C583        C584   1.414       .  A
C583        C588   1.403       .  A
C583       Br590   1.934       .  S
C584        C585   1.415       .  A
C585        C586   1.411       .  A
C585       Br592   1.932       .  S
C586        C587   1.408       .  A
C586       Br591   1.928       .  S
C587        C588   1.405       .  A
C588       Br589   1.928       .  S
C593        C594   1.410       .  A
C593        C598   1.403       .  A
C593       Br600   1.938       .  S
C594        C595   1.418       .  A
C595        C596   1.414       .  A
C595       Br602   1.933       .  S
C596        C597   1.417       .  A
C596       Br601   1.934       .  S
C597        C598   1.419       .  A
C598       Br599   1.935       .  S
C603        C604   1.415       .  A
C603        C608   1.414       .  A
C603       Br610   1.932       .  S
C604        C605   1.413       .  A
C605        C606   1.410       .  A
C605       Br612   1.930   1_556  S
C606        C607   1.409       .  A
C606       Br611   1.929       .  S
C607        C608   1.418       .  A
C608       Br609   1.933       .  S
C613        C614   1.408       .  A
C613        C618   1.400       .  A
C613       Br620   1.913       .  S
C614        C615   1.411       .  A
C615        C616   1.418       .  A
C615       Br622   1.925       .  S
C616        C617   1.412       .  A
C616       Br621   1.927       .  S
C617        C618   1.406       .  A
C618       Br619   1.937       .  S
C623        C624   1.416       .  A
C623        C628   1.409       .  A
C623       Br630   1.932       .  S
C624        C625   1.411       .  A
C625        C626   1.409       .  A
C625       Br632   1.930       .  S
C626        C627   1.408       .  A
C626       Br631   1.926       .  S
C627        C628   1.408       .  A
C628       Br629   1.932       .  S
C633        C634   1.409       .  A
C633        C638   1.416       .  A
C633       Br640   1.927       .  S
C634        C635   1.414       .  A
C635        C636   1.403       .  A
C635       Br642   1.925       .  S
C636        C637   1.409       .  A
C636       Br641   1.939       .  S
C637        C638   1.414       .  A
C638       Br639   1.926       .  S
C643        C644   1.414       .  A
C643        C648   1.413       .  A
C643       Br650   1.929       .  S
C644        C645   1.412       .  A
C645        C646   1.408       .  A
C645       Br652   1.923       .  S
C646        C647   1.405       .  A
C646       Br651   1.930       .  S
C647        C648   1.410       .  A
C648       Br649   1.931       .  S
C653        C654   1.407       .  A
C653        C658   1.409       .  A
C653       Br660   1.929       .  S
C654        C655   1.402       .  A
C655        C656   1.406       .  A
C655       Br662   1.932   1_556  S
C656        C657   1.420       .  A
C656       Br661   1.928       .  S
C657        C658   1.417       .  A
C658       Br659   1.933       .  S
C663        C664   1.401       .  A
C663        C668   1.401       .  A
C663       Br670   1.934       .  S
C664        C665   1.408       .  A
C665        C666   1.414       .  A
C665       Br672   1.927       .  S
C666        C667   1.413       .  A
C666       Br671   1.926       .  S
C667        C668   1.412       .  A
C668       Br669   1.912       .  S
C673        C674   1.410       .  A
C673        C678   1.414   1_545  A
C673       Br680   1.929       .  S
C674        C675   1.408   1_546  A
C675        C676   1.409   1_554  A
C675       Br682   1.924       .  S
C676        C677   1.422       .  A
C676       Br681   1.938   1_556  S
C677        C678   1.422       .  A
C678       Br679   1.931       .  S
C683        C684   1.418       .  A
C683        C688   1.418       .  A
C683       Br690   1.926       .  S
C684        C685   1.412       .  A
C685        C686   1.406       .  A
C685       Br692   1.937   1_556  S
C686        C687   1.416       .  A
C686       Br691   1.932       .  S
C687        C688   1.420       .  A
C688       Br689   1.936       .  S
C693        C694   1.412       .  A
C693        C698   1.404       .  A
C693       Br700   1.928       .  S
C694        C695   1.408       .  A
C695        C696   1.418       .  A
C695       Br702   1.928       .  S
C696        C697   1.419       .  A
C696       Br701   1.926       .  S
C697        C698   1.413       .  A
C698       Br699   1.936       .  S
C703        C704   1.416       .  A
C703        C708   1.408       .  A
C703       Br710   1.935       .  S
C704        C705   1.412       .  A
C705        C706   1.406       .  A
C705       Br712   1.931       .  S
C706        C707   1.412       .  A
C706       Br711   1.935       .  S
C707        C708   1.414       .  A
C708       Br709   1.935       .  S
C713        C714   1.406       .  A
C713        C718   1.412       .  A
C713       Br720   1.932       .  S
C714        C715   1.409       .  A
C715        C716   1.406       .  A
C715       Br722   1.932       .  S
C716        C717   1.418       .  A
C716       Br721   1.936       .  S
C717        C718   1.417       .  A
C718       Br719   1.918       .  S
C723        C724   1.412       .  A
C723        C728   1.410       .  A
C723       Br730   1.931       .  S
C724        C725   1.417       .  A
C725        C726   1.410       .  A
C725       Br732   1.935       .  S
C726        C727   1.413       .  A
C726       Br731   1.934       .  S
C727        C728   1.411       .  A
C728       Br729   1.931       .  S
C733        C734   1.403       .  A
C733        C738   1.412       .  A
C733       Br740   1.929       .  S
C734        C735   1.407       .  A
C735        C736   1.402       .  A
C735       Br742   1.935       .  S
C736        C737   1.413       .  A
C736       Br741   1.933       .  S
C737        C738   1.420       .  A
C738       Br739   1.931       .  S
C743        C744   1.406       .  A
C743        C748   1.409       .  A
C743       Br750   1.929   1_545  S
C744        C745   1.405       .  A
C745        C746   1.408       .  A
C745       Br752   1.932       .  S
C746        C747   1.416       .  A
C746       Br751   1.928       .  S
C747        C748   1.414       .  A
C748       Br749   1.930       .  S
