geometry optimzed in LAMMPS
_audit_creation_date              2020-11-30 
_audit_creation_method            'lammps2cif' 
_symmetry_space_group_name_H-M    'P1' 
_symmetry_Int_Tables_number       1 
_symmetry_cell_setting            triclinic 
loop_ 
_symmetry_equiv_pos_as_xyz 
  x,y,z 
_cell_length_a                    34.68266492 
_cell_length_b                    35.0062596219724 
_cell_length_c                    34.953986676475175 
_cell_angle_alpha                 89.90017790772427 
_cell_angle_beta                  89.90604259697885 
_cell_angle_gamma                 89.90763988442195 
loop_ 
_atom_site_label 
_atom_site_type_symbol 
_atom_site_fract_x 
_atom_site_fract_y 
_atom_site_fract_z 
_atom_site_charge 
O1          O  0.64226909  0.03306224  0.21258608    -0.77600
C2          C  0.62667458  0.12524204  0.11864406     0.83400
O3          O  0.72223530  0.14125436  0.22273300    -0.78700
O4          O  0.60899124  0.21786837  0.21657935    -0.80200
O5          O  0.53613915  0.10657080  0.23878515    -0.80000
O6          O  0.60592640  0.04383838  0.26412484    -0.78600
Zn7        Zn  0.64962638  0.08660120  0.18956350     1.55700
O8          O  0.54012845  0.15288200  0.19486164    -0.80000
Cd9        Cd  0.59206758  0.10027981  0.25675074     1.59700
Cd10       Cd  0.66911273  0.14940591  0.25267581     1.59600
O11         O  0.59771363  0.12343301  0.30922869    -0.80000
O12         O  0.62812796  0.12522248  0.22189189    -1.90500
Cd13       Cd  0.59952323  0.16374932  0.19208088     1.59900
O14         O  0.66195337  0.12944864  0.30945603    -0.80000
O15         O  0.61883168  0.15666427  0.13574755    -0.78600
C16         C  0.72982053  0.11986117  0.19382384     0.83900
C17         C  0.62557263  0.02152738  0.24315299     0.83600
O18         O  0.63035012  0.09358069  0.13639502    -0.77600
C19         C  0.52055129  0.12936823  0.21499456     0.84400
O20         O  0.70515761  0.09685471  0.18038555    -0.77700
C21         C  0.62947481  0.12607369  0.32690358     0.84500
C22         C  0.63260049  0.22951666  0.24213428     0.84800
O23         O  0.65772285  0.20752095  0.25714932    -0.80100
O24         O  0.64315380  0.02921937  0.46229869    -0.77600
C25         C  0.62748966  0.12436136  0.36840897     0.83400
O26         O  0.72227035  0.13762578  0.47253185    -0.78700
O27         O  0.60964114  0.21263268  0.46665114    -0.80200
O28         O  0.53613784  0.10482144  0.98871098    -0.80000
O29         O  0.60314461  0.03862825  0.51140868    -0.78600
Zn30       Zn  0.64950485  0.08307133  0.43860859     1.55700
O31         O  0.54002592  0.15014212  0.44394655    -0.80000
Cd32       Cd  0.59159799  0.09606317  0.00623192     1.59700
Cd33       Cd  0.66924210  0.14572024  0.00255537     1.59600
O34         O  0.59774771  0.11862045  0.05928833    -0.80000
O35         O  0.62817546  0.12100276  0.47185809    -1.90500
Cd36       Cd  0.59972203  0.15961565  0.44225897     1.59900
O37         O  0.66161993  0.12813772  0.05986759    -0.80000
O38         O  0.61971942  0.15498667  0.38667442    -0.78600
C39         C  0.72962378  0.11670421  0.44321430     0.83900
C40         C  0.62473916  0.01683747  0.49165809     0.83600
O41         O  0.63074211  0.09188076  0.38490805    -0.77600
C42         C  0.52033204  0.12742394  0.46483901     0.84400
O43         O  0.70489730  0.09388773  0.42958241    -0.77700
C44         C  0.62902557  0.12457710  0.07706224     0.84500
C45         C  0.63279427  0.22500772  0.49216575     0.84800
O46         O  0.65831149  0.20374267  0.50744402    -0.80100
O47         O  0.85579277  0.03237584  0.15691583    -0.77600
C48         C  0.87212016  0.12466880  0.25048335     0.83400
O49         O  0.77577958  0.14094180  0.14672474    -0.78700
O50         O  0.88853945  0.21751972  0.15243365    -0.80200
O51         O  0.96126858  0.10516798  0.12977919    -0.80000
O52         O  0.89104090  0.04329379  0.10467520    -0.78600
Zn53       Zn  0.84854541  0.08609489  0.17988278     1.55700
O54         O  0.95821075  0.15260116  0.17242114    -0.80000
Cd55       Cd  0.90531551  0.09954932  0.11235831     1.59700
Cd56       Cd  0.82870776  0.14896457  0.11651022     1.59600
O57         O  0.90014622  0.12347578  0.06014671    -0.80000
O58         O  0.86975485  0.12478734  0.14737589    -1.90500
Cd59       Cd  0.89874803  0.16328910  0.17667682     1.59900
O60         O  0.83589555  0.12885483  0.05971456    -0.80000
O61         O  0.88011734  0.15603831  0.23327721    -0.78600
C62         C  0.76832435  0.11976389  0.17587842     0.83900
C63         C  0.87189914  0.02089093  0.12601510     0.83600
O64         O  0.86826254  0.09303623  0.23284845    -0.77600
C65         C  0.97735124  0.12858903  0.15244316     0.84400
O66         O  0.79303137  0.09671042  0.18941308    -0.77700
C67         C  0.86845266  0.12573186  0.04233183     0.84500
C68         C  0.86472348  0.22916767  0.12699318     0.84800
O69         O  0.83978166  0.20710330  0.11198265    -0.80100
O70         O  0.85348869  0.02824829  0.40751794    -0.77600
C71         C  0.87065937  0.12368838  0.50082191     0.83400
O72         O  0.77571761  0.13760946  0.39604216    -0.78700
O73         O  0.88953050  0.21194831  0.40232651    -0.80200
O74         O  0.96185459  0.10054479  0.38005425    -0.80000
O75         O  0.89272064  0.03732094  0.35774825    -0.78600
Zn76       Zn  0.84793986  0.08237955  0.43071488     1.55700
O77         O  0.95859753  0.14779612  0.42279635    -0.80000
Cd78       Cd  0.90593010  0.09406259  0.36303734     1.59700
Cd79       Cd  0.82913589  0.14557187  0.36652349     1.59600
O80         O  0.90058152  0.11686326  0.30995003    -0.80000
O81         O  0.86985638  0.12007676  0.39730138    -1.90500
Cd82       Cd  0.89916531  0.15833267  0.42630339     1.59900
O83         O  0.83703439  0.12851278  0.30910881    -0.80000
O84         O  0.88009509  0.15377961  0.48233662    -0.78600
C85         C  0.76809447  0.11659357  0.42529161     0.83900
C86         C  0.87119390  0.01578969  0.37779438     0.83600
O87         O  0.86588682  0.09131991  0.48461657    -0.77600
C88         C  0.97783945  0.12396748  0.40274771     0.84400
O89         O  0.79267172  0.09365306  0.43912249    -0.77700
C90         C  0.86959316  0.12397984  0.29206114     0.84500
C91         C  0.86610311  0.22467437  0.37713469     0.84800
O92         O  0.84037346  0.20360771  0.36209202    -0.80100
O93         O  0.14346254  0.22576235  0.15308641    -0.77600
C94         C  0.12592218  0.13121057  0.24702547     0.83400
O95         O  0.22099018  0.11602483  0.14301315    -0.78700
O96         O  0.10789715  0.04235376  0.14876196    -0.80200
O97         O  0.03479029  0.15282955  0.12775395    -0.80000
O98         O  0.10323840  0.21681447  0.10423065    -0.78600
Zn99       Zn  0.14885318  0.17182087  0.17682820     1.55700
O100        O  0.03916432  0.10648729  0.17154869    -0.80000
Cd101      Cd  0.09056760  0.15985303  0.10957443     1.59700
Cd102      Cd  0.16793235  0.10897176  0.11286810     1.59600
O103        O  0.09670660  0.13738432  0.05633233    -0.80000
O104        O  0.12709543  0.13421078  0.14361181    -1.90500
Cd105      Cd  0.09855313  0.09577536  0.17319654     1.59900
O106        O  0.16055322  0.12714230  0.05575870    -0.80000
O107        O  0.11828914  0.10052920  0.22884104    -0.78600
C108        C  0.22852996  0.13676539  0.17238019     0.83900
C109        C  0.12517333  0.23829733  0.12375992     0.83600
O110        O  0.12940273  0.16359810  0.23040867    -0.77600
C111        C  0.01940367  0.12999631  0.15162450     0.84400
O112        O  0.20405564  0.15998436  0.18600482    -0.77700
C113        C  0.12805965  0.13117603  0.03856056     0.84500
C114        C  0.13090822  0.02987235  0.12302564     0.84800
O115        O  0.15641355  0.05107550  0.10765942    -0.80100
O116        O  0.14411345  0.22144065  0.40213287    -0.77600
C117        C  0.12597092  0.13027616  0.49696539     0.83400
O118        O  0.21967499  0.11010653  0.39255915    -0.78700
O119        O  0.10841108  0.03650778  0.40002241    -0.80200
O120        O  0.03518878  0.14864364  0.37830520    -0.80000
O121        O  0.10469975  0.21158962  0.35278828    -0.78600
Zn122      Zn  0.15014214  0.16773503  0.42565319     1.55700
O123        O  0.03960570  0.10172858  0.42158353    -0.80000
Cd124      Cd  0.09085359  0.15511931  0.35953660     1.59700
Cd125      Cd  0.16698622  0.10488443  0.36210506     1.59600
O126        O  0.09622878  0.13283094  0.30645474    -0.80000
O127        O  0.12708072  0.12958272  0.39371427    -1.90500
Cd128      Cd  0.09895270  0.09101470  0.42400065     1.59900
O129        O  0.16036956  0.12565446  0.30574687    -0.80000
O130        O  0.11813219  0.09873462  0.48015782    -0.78600
C131        C  0.22852498  0.13044449  0.42184102     0.83900
C132        C  0.12601045  0.23339903  0.37253542     0.83600
O133        O  0.13011691  0.16172499  0.47889197    -0.77600
C134        C  0.01985931  0.12550729  0.40194847     0.84400
O135        O  0.20539331  0.15511275  0.43535491    -0.77700
C136        C  0.12789672  0.12962614  0.28853641     0.84500
C137        C  0.13071164  0.02507592  0.37312895     0.84800
O138        O  0.15465053  0.04729175  0.35674391    -0.80100
O139        O  0.35182766  0.22547966  0.20760275    -0.77600
C140        C  0.37115358  0.13138066  0.11473078     0.83400
O141        O  0.27509258  0.11445418  0.21850956    -0.78700
O142        O  0.39108307  0.04163662  0.21195464    -0.80200
O143        O  0.46182591  0.15333253  0.23707696    -0.80000
O144        O  0.39257276  0.21694376  0.25609287    -0.78600
Zn145      Zn  0.34650627  0.17140347  0.18500714     1.55700
O146        O  0.45973424  0.10701283  0.19339385    -0.80000
Cd147      Cd  0.40517956  0.16031190  0.25225392     1.59700
Cd148      Cd  0.32875267  0.10662931  0.24764653     1.59600
O149        O  0.39774788  0.14008668  0.30583387    -0.80000
O150        O  0.36958652  0.13363691  0.21798516    -1.90500
Cd151      Cd  0.40050896  0.09611232  0.18923465     1.59900
O152        O  0.33606941  0.12079670  0.30567980    -0.80000
O153        O  0.38306273  0.10204515  0.13309958    -0.78600
C154        C  0.26704574  0.13648559  0.19015487     0.83900
C155        C  0.37040050  0.23818059  0.23654557     0.83600
O156        O  0.36340031  0.16315069  0.13091207    -0.77600
C157        C  0.47845623  0.13049550  0.21413322     0.84400
O158        O  0.29125615  0.16020627  0.17712942    -0.77700
C159        C  0.36762184  0.12882389  0.32309897     0.84500
C160        C  0.36703927  0.02828082  0.23631107     0.84800
O161        O  0.34054926  0.04883524  0.25084742    -0.80100
O162        O  0.36135914  0.09493274  0.38116311    -0.77600
C163        C  0.36996270  0.01981233  0.48627816     0.83400
O164        O  0.27574400  0.14635165  0.46956001    -0.78700
O165        O  0.39781740  0.11693091  0.05578763    -0.80200
O166        O  0.45953979  0.15138424  0.44281101    -0.80000
O167        O  0.38267453  0.15547400  0.38263500    -0.78600
Zn168      Zn  0.34444173  0.08725409  0.43553287     1.55700
O169        O  0.46077926  0.10529176  0.98680278    -0.80000
Cd170      Cd  0.40000757  0.16205672  0.43877969     1.59700
Cd171      Cd  0.32921237  0.15166853  0.99858256     1.59600
O172        O  0.39005941  0.21673634  0.46101215    -0.80000
O173        O  0.36906470  0.12458785  0.46792749    -1.90500
Cd174      Cd  0.40464300  0.09754316  0.00192693     1.59900
O175        O  0.34143974  0.20902146  0.50213521    -0.80000
O176        O  0.39298328  0.04074078  0.50501325    -0.78600
C177        C  0.26634315  0.12543445  0.44089253     0.83900
C178        C  0.37016639  0.12627089  0.36457490     0.83600
O179        O  0.34996792  0.03296980  0.45836893    -0.77600
C180        C  0.47796957  0.12789566  0.46399189     0.84400
O181        O  0.28909781  0.10031187  0.42765011    -0.77700
C182        C  0.36686532  0.22983561  0.48633597     0.84500
C183        C  0.36804434  0.12853428  0.07338589     0.84800
O184        O  0.33638486  0.13694367  0.05634116    -0.80100
O185        O  0.63640531  0.33889784  0.10754888    -0.77600
C186        C  0.62924415  0.26513861  0.00407964     0.83400
O187        O  0.72019821  0.39446227  0.01986409    -0.78700
O188        O  0.59905357  0.35952081  0.43383889    -0.80200
O189        O  0.53800622  0.39810032  0.04615871    -0.80000
O190        O  0.61469834  0.39941047  0.10726335    -0.78600
Zn191      Zn  0.65338729  0.33307527  0.05335755     1.55700
O192        O  0.53598469  0.35160878  0.50268282    -0.80000
Cd193      Cd  0.59737003  0.40785065  0.05120899     1.59700
Cd194      Cd  0.66663884  0.39820683  0.49032576     1.59600
O195        O  0.60669615  0.46331427  0.03004074    -0.80000
O196        O  0.62775755  0.37043784  0.02140508    -1.90500
Cd197      Cd  0.59221052  0.34232965  0.48845533     1.59900
O198        O  0.65265804  0.45537936  0.48613204    -0.80000
O199        O  0.60447454  0.28549261  0.48675552    -0.78600
C200        C  0.72983589  0.37354779  0.04857094     0.83900
C201        C  0.62745328  0.36979653  0.12470465     0.83600
O202        O  0.65028812  0.27876667  0.03080965    -0.77600
C203        C  0.51922375  0.37516422  0.02483504     0.84400
O204        O  0.70768930  0.34780210  0.06143895    -0.77700
C205        C  0.62825433  0.47638159  0.00331225     0.84500
C206        C  0.62842619  0.37159463  0.41596423     0.84800
O207        O  0.65959441  0.38188260  0.43286812    -0.80100
O208        O  0.64222343  0.46892339  0.28362573    -0.77600
C209        C  0.62526729  0.37370462  0.37450257     0.83400
O210        O  0.72066516  0.35662046  0.27186194    -0.78700
O211        O  0.60641963  0.28252661  0.27675739    -0.80200
O212        O  0.53735554  0.39755888  0.25149961    -0.80000
O213        O  0.60755152  0.45876225  0.23100732    -0.78600
Zn214      Zn  0.65063003  0.41409278  0.30443725     1.55700
O215        O  0.53717226  0.35020378  0.29426453    -0.80000
Cd216      Cd  0.59372482  0.40265689  0.23634359     1.59700
Cd217      Cd  0.66836115  0.34938437  0.24180021     1.59600
O218        O  0.59956195  0.38148569  0.18347061    -0.80000
O219        O  0.62780933  0.37578541  0.27160284    -1.90500
Cd220      Cd  0.59628761  0.33770719  0.29957094     1.59900
O221        O  0.66162250  0.36372609  0.18359328    -0.80000
O222        O  0.61302175  0.34435132  0.35635966    -0.78600
C223        C  0.72947117  0.37790217  0.30043348     0.83900
C224        C  0.62585440  0.48092122  0.25303888     0.83600
O225        O  0.63355494  0.40517962  0.35805437    -0.77600
C226        C  0.51950780  0.37485795  0.27368636     0.84400
O227        O  0.70643703  0.40309604  0.31310627    -0.77700
C228        C  0.62994083  0.37130117  0.16614328     0.84500
C229        C  0.63220928  0.26997592  0.25367696     0.84800
O230        O  0.65831035  0.29146586  0.23998093    -0.80100
O231        O  0.85532250  0.46868932  0.08514973    -0.77600
C232        C  0.87097170  0.37297659  0.49404747     0.83400
O233        O  0.77618714  0.35690884  0.09640983    -0.78700
O234        O  0.89058354  0.28222764  0.09229589    -0.80200
O235        O  0.95936179  0.39670233  0.11503255    -0.80000
O236        O  0.88935959  0.45771313  0.13809160    -0.78600
Zn237      Zn  0.84637830  0.41403956  0.06406507     1.55700
O238        O  0.95863855  0.35016535  0.07153922    -0.80000
Cd239      Cd  0.90327428  0.40149410  0.13217810     1.59700
Cd240      Cd  0.82827071  0.34910292  0.12670635     1.59600
O241        O  0.89743457  0.37950202  0.18502600    -0.80000
O242        O  0.86876279  0.37543361  0.09695559    -1.90500
Cd243      Cd  0.89972566  0.33718746  0.06872777     1.59900
O244        O  0.83481487  0.36382437  0.18473506    -0.80000
O245        O  0.88210539  0.34321835  0.01232156    -0.78600
C246        C  0.76737038  0.37851631  0.06798251     0.83900
C247        C  0.87143029  0.48027957  0.11599206     0.83600
O248        O  0.86366565  0.40475601  0.01038293    -0.77600
C249        C  0.97666485  0.37481993  0.09157104     0.84400
O250        O  0.79040758  0.40374542  0.05541579    -0.77700
C251        C  0.86660563  0.37046716  0.20229812     0.84500
C252        C  0.86481559  0.26963820  0.11535544     0.84800
O253        O  0.83846192  0.29106240  0.12878545    -0.80100
O254        O  0.86130313  0.33817870  0.26125960    -0.77600
C255        C  0.86939500  0.26493766  0.36517723     0.83400
O256        O  0.77637471  0.39346288  0.34871937    -0.78700
O257        O  0.89813235  0.36018428  0.43473864    -0.80200
O258        O  0.95700209  0.39931614  0.31973949    -0.80000
O259        O  0.87951185  0.39971792  0.26099954    -0.78600
Zn260      Zn  0.84381103  0.33252906  0.31549490     1.55700
O261        O  0.96141016  0.35359804  0.36406288    -0.80000
Cd262      Cd  0.89752276  0.40799375  0.31671853     1.59700
Cd263      Cd  0.82966980  0.39717897  0.37851613     1.59600
O264        O  0.88804748  0.46289599  0.33850909    -0.80000
O265        O  0.86884898  0.37001938  0.34729753    -1.90500
Cd266      Cd  0.90553948  0.34281711  0.38001873     1.59900
O267        O  0.84329749  0.45433657  0.38351174    -0.80000
O268        O  0.89431828  0.28545119  0.38204075    -0.78600
C269        C  0.76696138  0.37270302  0.31992452     0.83900
C270        C  0.86861607  0.36938234  0.24378422     0.83600
O271        O  0.84780209  0.27848539  0.33873441    -0.77600
C272        C  0.97695392  0.37703256  0.34078247     0.84400
O273        O  0.78928202  0.34703414  0.30708806    -0.77700
C274        C  0.86719436  0.47555647  0.36593098     0.84500
C275        C  0.86813931  0.37094923  0.45258363     0.84800
O276        O  0.83658187  0.38004461  0.43565455    -0.80100
O277        O  0.13559295  0.41605205  0.00738300    -0.77600
C278        C  0.12743929  0.48969173  0.11097499     0.83400
O279        O  0.21980049  0.36057905  0.09463637    -0.78700
O280        O  0.09849622  0.39499675  0.18112649    -0.80200
O281        O  0.03831758  0.35504152  0.06854512    -0.80000
O282        O  0.11506564  0.35519783  0.00755102    -0.78600
Zn283      Zn  0.15283279  0.42184482  0.06153076     1.55700
O284        O  0.03498287  0.40135493  0.11216317    -0.80000
Cd285      Cd  0.09782093  0.34658913  0.06357093     1.59700
Cd286      Cd  0.16643468  0.35695967  0.12455069     1.59600
O287        O  0.10776853  0.29142873  0.08480803    -0.80000
O288        O  0.12733382  0.38440080  0.09349002    -1.90500
Cd289      Cd  0.09108617  0.41205815  0.12640111     1.59900
O290        O  0.15288607  0.29977859  0.12929784    -0.80000
O291        O  0.10244614  0.46927847  0.12796917    -0.78600
C292        C  0.22949147  0.38129503  0.06579387     0.83900
C293        C  0.12717013  0.38507111  0.49015498     0.83600
O294        O  0.14899020  0.47606557  0.08449892    -0.77600
C295        C  0.01888667  0.37743885  0.08996437     0.84400
O296        O  0.20742976  0.40719154  0.05294888    -0.77700
C297        C  0.12892584  0.27861179  0.11190245     0.84500
C298        C  0.12812256  0.38335612  0.19890495     0.84800
O299        O  0.15945187  0.37352098  0.18188896    -0.80100
O300        O  0.14270993  0.28590678  0.33182598    -0.77600
C301        C  0.12510308  0.38122106  0.24039620     0.83400
O302        O  0.22032812  0.39879819  0.34299332    -0.78700
O303        O  0.10514136  0.47209570  0.33825515    -0.80200
O304        O  0.03716427  0.35686531  0.36306312    -0.80000
O305        O  0.10784708  0.29625653  0.38443081    -0.78600
Zn306      Zn  0.15066764  0.34076571  0.31057177     1.55700
O307        O  0.03678263  0.40400471  0.32007230    -0.80000
Cd308      Cd  0.09349465  0.35228627  0.37870382     1.59700
Cd309      Cd  0.16779259  0.40552091  0.37308330     1.59600
O310        O  0.09902334  0.37401706  0.43144826    -0.80000
O311        O  0.12751433  0.37900533  0.34329463    -1.90500
Cd312      Cd  0.09577081  0.41693250  0.31530307     1.59900
O313        O  0.16130150  0.39081490  0.43116670    -0.80000
O314        O  0.11275734  0.41056003  0.25857413    -0.78600
C315        C  0.22931694  0.37736107  0.31455177     0.83900
C316        C  0.12638992  0.27402162  0.36253895     0.83600
O317        O  0.13361088  0.34975845  0.25684146    -0.77600
C318        C  0.01924096  0.37922230  0.34056284     0.84400
O319        O  0.20641217  0.35207289  0.30203161    -0.77700
C320        C  0.12953436  0.38371504  0.44870713     0.84500
C321        C  0.13054029  0.48463341  0.36163225     0.84800
O322        O  0.15672092  0.46323672  0.37536894    -0.80100
O323        O  0.35057363  0.28290284  0.02651064    -0.77600
C324        C  0.36993766  0.37694802  0.12021864     0.83400
O325        O  0.27615599  0.39648691  0.01738076    -0.78700
O326        O  0.39023633  0.46634654  0.02289250    -0.80200
O327        O  0.46038228  0.35498884  0.49917445    -0.80000
O328        O  0.39216520  0.29150198  0.47853326    -0.78600
Zn329      Zn  0.34481212  0.33702766  0.04981870     1.55700
O330        O  0.45814758  0.40019354  0.04393512    -0.80000
Cd331      Cd  0.40434360  0.34830161  0.48250352     1.59700
Cd332      Cd  0.32872692  0.40160614  0.48688911     1.59600
O333        O  0.39730892  0.36928200  0.42901770    -0.80000
O334        O  0.36868392  0.37447280  0.01699247    -1.90500
Cd335      Cd  0.39909141  0.41201035  0.04601793     1.59900
O336        O  0.33499265  0.38655019  0.42921995    -0.80000
O337        O  0.38091322  0.40659095  0.10185290    -0.78600
C338        C  0.26692476  0.37551001  0.04616546     0.83900
C339        C  0.36984559  0.27017670  0.99784977     0.83600
O340        O  0.36268022  0.34509474  0.10392210    -0.77600
C341        C  0.47696799  0.37666847  0.02322929     0.84400
O342        O  0.28944173  0.34986551  0.05884821    -0.77700
C343        C  0.36681886  0.37958065  0.41176751     0.84500
C344        C  0.36685739  0.47952689  0.99784922     0.84800
O345        O  0.34101644  0.45889675  0.48265027    -0.80100
O346        O  0.36205913  0.41359568  0.35358032    -0.77600
C347        C  0.37032846  0.48794049  0.24811586     0.83400
O348        O  0.27609481  0.36121040  0.26634071    -0.78700
O349        O  0.39764275  0.39023307  0.17905252    -0.80200
O350        O  0.45739189  0.35423917  0.29415976    -0.80000
O351        O  0.37998552  0.35194278  0.35241978    -0.78600
Zn352      Zn  0.34461144  0.42087682  0.29923724     1.57300
O353        O  0.46150516  0.39942982  0.24931266    -0.80000
Cd354      Cd  0.39807804  0.34532458  0.29677099     1.59700
Cd355      Cd  0.32912056  0.35653742  0.23640294     1.59600
O356        O  0.38873078  0.29103200  0.27454647    -0.80000
O357        O  0.36893996  0.38338884  0.26687545    -1.90500
Cd358      Cd  0.40546993  0.40957549  0.23315939     1.59900
O359        O  0.34188156  0.29933428  0.23177699    -0.80000
O360        O  0.39420703  0.46696740  0.23018794    -0.78600
C361        C  0.26689995  0.38221774  0.29504300     0.83900
C362        C  0.36916572  0.38187851  0.37033325     0.83600
O363        O  0.34970208  0.47485366  0.27564101    -0.77600
C364        C  0.47720239  0.37649102  0.27300173     0.84400
O365        O  0.28954077  0.40760265  0.30775346    -0.77700
C366        C  0.36670371  0.27831310  0.24824103     0.84500
C367        C  0.36738175  0.37961310  0.16165080     0.84800
O368        O  0.33561627  0.37209849  0.17894556    -0.80100
O369        O  0.64226922  0.03306261  0.71258585    -0.77600
C370        C  0.62667476  0.12524082  0.61864339     0.83400
O371        O  0.72223520  0.14125446  0.72273325    -0.78700
O372        O  0.60899130  0.21786852  0.71657926    -0.80200
O373        O  0.53613914  0.10657073  0.73878498    -0.80000
O374        O  0.60592629  0.04383859  0.76412486    -0.78600
Zn375      Zn  0.64962639  0.08660126  0.68956354     1.55700
O376        O  0.54012850  0.15288212  0.69486159    -0.80000
Cd377      Cd  0.59206758  0.10027979  0.75675067     1.59700
Cd378      Cd  0.66911272  0.14940589  0.75267591     1.59600
O379        O  0.59771370  0.12343292  0.80922895    -0.80000
O380        O  0.62812794  0.12522255  0.72189193    -1.90500
Cd381      Cd  0.59952322  0.16374946  0.69208082     1.59900
O382        O  0.66195328  0.12944850  0.80945644    -0.80000
O383        O  0.61883161  0.15666473  0.63574777    -0.78600
C384        C  0.72982074  0.11986106  0.69382340     0.83900
C385        C  0.62557258  0.02152628  0.74315352     0.83600
O386        O  0.63035011  0.09358104  0.63639489    -0.77600
C387        C  0.52055122  0.12936797  0.71499475     0.84400
O388        O  0.70515767  0.09685478  0.68038560    -0.77700
C389        C  0.62947479  0.12607353  0.82690262     0.84500
C390        C  0.63260074  0.22951608  0.74213415     0.84800
O391        O  0.65772268  0.20752113  0.75714928    -0.80100
O392        O  0.64315378  0.02921917  0.96229880    -0.77600
C393        C  0.62748954  0.12436126  0.86841001     0.83400
O394        O  0.72227031  0.13762587  0.97253204    -0.78700
O395        O  0.60964107  0.21263264  0.96665096    -0.80200
O396        O  0.53613787  0.10482128  0.48871117    -0.80000
O397        O  0.60314473  0.03862815  0.01140867    -0.78600
Zn398      Zn  0.64950486  0.08307133  0.93860868     1.55700
O399        O  0.54002602  0.15014230  0.94394637    -0.80000
Cd400      Cd  0.59159800  0.09606311  0.50623188     1.59700
Cd401      Cd  0.66924210  0.14572022  0.50255532     1.59600
O402        O  0.59774763  0.11862020  0.55928806    -0.80000
O403        O  0.62817542  0.12100299  0.97185802    -1.90500
Cd404      Cd  0.59972204  0.15961576  0.94225892     1.59900
O405        O  0.66161992  0.12813773  0.55986753    -0.80000
O406        O  0.61971952  0.15498660  0.88667406    -0.78600
C407        C  0.72962383  0.11670387  0.94321379     0.83900
C408        C  0.62473897  0.01683779  0.99165841     0.83600
O409        O  0.63074208  0.09188081  0.88490792    -0.77600
C410        C  0.52033205  0.12742345  0.96483939     0.84400
O411        O  0.70489727  0.09388771  0.92958257    -0.77700
C412        C  0.62902579  0.12457733  0.57706285     0.84500
C413        C  0.63279430  0.22500846  0.99216596     0.84800
O414        O  0.65831150  0.20374263  0.00744401    -0.80100
O415        O  0.85579286  0.03237564  0.65691560    -0.77600
C416        C  0.87212029  0.12466943  0.75048289     0.83400
O417        O  0.77577969  0.14094205  0.64672456    -0.78700
O418        O  0.88853948  0.21751963  0.65243356    -0.80200
O419        O  0.96126860  0.10516791  0.62977911    -0.80000
O420        O  0.89104099  0.04329376  0.60467505    -0.78600
Zn421      Zn  0.84854543  0.08609484  0.67988277     1.55700
O422        O  0.95821083  0.15260095  0.67242101    -0.80000
Cd423      Cd  0.90531553  0.09954928  0.61235827     1.59700
Cd424      Cd  0.82870776  0.14896453  0.61651018     1.59600
O425        O  0.90014618  0.12347572  0.56014662    -0.80000
O426        O  0.86975486  0.12478726  0.64737580    -1.90500
Cd427      Cd  0.89874804  0.16328902  0.67667677     1.59900
O428        O  0.83589564  0.12885468  0.55971432    -0.80000
O429        O  0.88011732  0.15603803  0.73327735    -0.78600
C430        C  0.76832441  0.11976329  0.67587921     0.83900
C431        C  0.87189882  0.02089125  0.62601586     0.83600
O432        O  0.86826250  0.09303615  0.73284840    -0.77600
C433        C  0.97735105  0.12858952  0.65244357     0.84400
O434        O  0.79303123  0.09671047  0.68941285    -0.77700
C435        C  0.86845250  0.12573180  0.54233246     0.84500
C436        C  0.86472347  0.22916758  0.62699311     0.84800
O437        O  0.83978171  0.20710328  0.61198251    -0.80100
O438        O  0.85348863  0.02824845  0.90751818    -0.77600
C439        C  0.87065933  0.12368843  0.00082227     0.83400
O440        O  0.77571758  0.13760944  0.89604219    -0.78700
O441        O  0.88953042  0.21194843  0.90232631    -0.80200
O442        O  0.96185457  0.10054485  0.88005419    -0.80000
O443        O  0.89272055  0.03732086  0.85774840    -0.78600
Zn444      Zn  0.84793987  0.08237955  0.93071484     1.55700
O445        O  0.95859757  0.14779616  0.92279630    -0.80000
Cd446      Cd  0.90593009  0.09406257  0.86303730     1.59700
Cd447      Cd  0.82913587  0.14557183  0.86652345     1.59600
O448        O  0.90058158  0.11686339  0.80995005    -0.80000
O449        O  0.86985638  0.12007649  0.89730111    -1.90500
Cd450      Cd  0.89916532  0.15833266  0.92630330     1.59900
O451        O  0.83703429  0.12851267  0.80910893    -0.80000
O452        O  0.88009513  0.15377963  0.98233651    -0.78600
C453        C  0.76809473  0.11659341  0.92529151     0.83900
C454        C  0.87119427  0.01578960  0.87779370     0.83600
O455        O  0.86588687  0.09131994  0.98461650    -0.77600
C456        C  0.97783945  0.12396745  0.90274756     0.84400
O457        O  0.79267162  0.09365310  0.93912247    -0.77700
C458        C  0.86959321  0.12397987  0.79206077     0.84500
C459        C  0.86610306  0.22467347  0.87713487     0.84800
O460        O  0.84037355  0.20360795  0.86209189    -0.80100
O461        O  0.14346262  0.22576210  0.65308662    -0.77600
C462        C  0.12592200  0.13121027  0.74702475     0.83400
O463        O  0.22099026  0.11602501  0.64301331    -0.78700
O464        O  0.10789717  0.04235381  0.64876189    -0.80200
O465        O  0.03479042  0.15282959  0.62775380    -0.80000
O466        O  0.10323845  0.21681446  0.60423073    -0.78600
Zn467      Zn  0.14885318  0.17182082  0.67682829     1.55700
O468        O  0.03916427  0.10648730  0.67154857    -0.80000
Cd469      Cd  0.09056761  0.15985297  0.60957441     1.59700
Cd470      Cd  0.16793238  0.10897185  0.61286809     1.59600
O471        O  0.09670659  0.13738422  0.55633232    -0.80000
O472        O  0.12709541  0.13421087  0.64361190    -1.90500
Cd473      Cd  0.09855310  0.09577529  0.67319649     1.59900
O474        O  0.16055333  0.12714240  0.55575881    -0.80000
O475        O  0.11828915  0.10052927  0.72884125    -0.78600
C476        C  0.22852984  0.13676509  0.67237991     0.83900
C477        C  0.12517333  0.23829755  0.62375991     0.83600
O478        O  0.12940278  0.16359805  0.73040876    -0.77600
C479        C  0.01940365  0.12999580  0.65162498     0.84400
O480        O  0.20405556  0.15998428  0.68600503    -0.77700
C481        C  0.12805948  0.13117606  0.53856014     0.84500
C482        C  0.13090838  0.02987240  0.62302540     0.84800
O483        O  0.15641354  0.05107565  0.60765937    -0.80100
O484        O  0.14411340  0.22144067  0.90213283    -0.77600
C485        C  0.12597091  0.13027624  0.99696525     0.83400
O486        O  0.21967497  0.11010649  0.89255890    -0.78700
O487        O  0.10841112  0.03650749  0.90002221    -0.80200
O488        O  0.03518882  0.14864363  0.87830513    -0.80000
O489        O  0.10469979  0.21158952  0.85278823    -0.78600
Zn490      Zn  0.15014215  0.16773506  0.92565315     1.55700
O491        O  0.03960567  0.10172858  0.92158345    -0.80000
Cd492      Cd  0.09085362  0.15511928  0.85953655     1.59700
Cd493      Cd  0.16698623  0.10488440  0.86210500     1.59600
O494        O  0.09622878  0.13283089  0.80645463    -0.80000
O495        O  0.12708075  0.12958277  0.89371403    -1.90500
Cd496      Cd  0.09895269  0.09101466  0.92400057     1.59900
O497        O  0.16036944  0.12565438  0.80574657    -0.80000
O498        O  0.11813223  0.09873461  0.98015780    -0.78600
C499        C  0.22852492  0.13044486  0.92184141     0.83900
C500        C  0.12601064  0.23339914  0.87253573     0.83600
O501        O  0.13011690  0.16172497  0.97889194    -0.77600
C502        C  0.01985932  0.12550742  0.90194830     0.84400
O503        O  0.20539334  0.15511266  0.93535482    -0.77700
C504        C  0.12789678  0.12962611  0.78853706     0.84500
C505        C  0.13071180  0.02507652  0.87312890     0.84800
O506        O  0.15465049  0.04729140  0.85674382    -0.80100
O507        O  0.35182764  0.22547963  0.70760274    -0.77600
C508        C  0.37115358  0.13138083  0.61473125     0.83400
O509        O  0.27509254  0.11445408  0.71850980    -0.78700
O510        O  0.39108318  0.04163662  0.71195451    -0.80200
O511        O  0.46182590  0.15333245  0.73707687    -0.80000
O512        O  0.39257280  0.21694347  0.75609283    -0.78600
Zn513      Zn  0.34650628  0.17140341  0.68500717     1.55700
O514        O  0.45973429  0.10701277  0.69339377    -0.80000
Cd515      Cd  0.40517955  0.16031185  0.75225386     1.59700
Cd516      Cd  0.32875269  0.10662925  0.74764651     1.59600
O517        O  0.39774791  0.14008660  0.80583392    -0.80000
O518        O  0.36958657  0.13363680  0.71798498    -1.90500
Cd519      Cd  0.40050897  0.09611227  0.68923458     1.59900
O520        O  0.33606943  0.12079660  0.80567985    -0.80000
O521        O  0.38306268  0.10204512  0.63309935    -0.78600
C522        C  0.26704577  0.13648600  0.69015454     0.83900
C523        C  0.37040052  0.23818080  0.73654574     0.83600
O524        O  0.36340041  0.16315053  0.63091209    -0.77600
C525        C  0.47845624  0.13049544  0.71413312     0.84400
O526        O  0.29125616  0.16020607  0.67712949    -0.77700
C527        C  0.36762188  0.12882381  0.82309894     0.84500
C528        C  0.36703905  0.02828095  0.73631118     0.84800
O529        O  0.34054932  0.04883490  0.75084729    -0.80100
O530        O  0.36135916  0.09493274  0.88116296    -0.77600
C531        C  0.36996276  0.01981236  0.98627848     0.83400
O532        O  0.27574387  0.14635142  0.96955980    -0.78700
O533        O  0.39781740  0.11693081  0.55578757    -0.80200
O534        O  0.45953972  0.15138427  0.94281093    -0.80000
O535        O  0.38267448  0.15547386  0.88263484    -0.78600
Zn536      Zn  0.34444171  0.08725404  0.93553293     1.55700
O537        O  0.46077913  0.10529159  0.48680283    -0.80000
Cd538      Cd  0.40000757  0.16205665  0.93877977     1.59700
Cd539      Cd  0.32921238  0.15166859  0.49858260     1.59600
O540        O  0.39005957  0.21673614  0.96101208    -0.80000
O541        O  0.36906471  0.12458779  0.96792766    -1.90500
Cd542      Cd  0.40464299  0.09754313  0.50192685     1.59900
O543        O  0.34143970  0.20902135  0.00213511    -0.80000
O544        O  0.39298323  0.04074069  0.00501326    -0.78600
C545        C  0.26634320  0.12543475  0.94089300     0.83900
C546        C  0.37016645  0.12627081  0.86457560     0.83600
O547        O  0.34996784  0.03296985  0.95836889    -0.77600
C548        C  0.47796950  0.12789517  0.96399223     0.84400
O549        O  0.28909787  0.10031175  0.92765004    -0.77700
C550        C  0.36686503  0.22983581  0.98633643     0.84500
C551        C  0.36804443  0.12853431  0.57338619     0.84800
O552        O  0.33638477  0.13694366  0.55634101    -0.80100
O553        O  0.63640534  0.33889790  0.60754878    -0.77600
C554        C  0.62924407  0.26513896  0.50407968     0.83400
O555        O  0.72019811  0.39446240  0.51986392    -0.78700
O556        O  0.59905326  0.35952085  0.93383909    -0.80200
O557        O  0.53800628  0.39810040  0.54615857    -0.80000
O558        O  0.61469827  0.39941063  0.60726306    -0.78600
Zn559      Zn  0.65338727  0.33307531  0.55335748     1.55700
O560        O  0.53598472  0.35160878  0.00268292    -0.80000
Cd561      Cd  0.59737005  0.40785071  0.55120894     1.59700
Cd562      Cd  0.66663885  0.39820693  0.99032575     1.59600
O563        O  0.60669613  0.46331435  0.53004070    -0.80000
O564        O  0.62775735  0.37043789  0.52140503    -1.90500
Cd565      Cd  0.59221054  0.34232978  0.98845548     1.59900
O566        O  0.65265805  0.45537954  0.98613202    -0.80000
O567        O  0.60447446  0.28549295  0.98675564    -0.78600
C568        C  0.72983595  0.37354732  0.54857135     0.83900
C569        C  0.62745328  0.36979628  0.62470528     0.83600
O570        O  0.65028809  0.27876677  0.53080960    -0.77600
C571        C  0.51922377  0.37516430  0.52483499     0.84400
O572        O  0.70768941  0.34780219  0.56143886    -0.77700
C573        C  0.62825443  0.47638152  0.50331212     0.84500
C574        C  0.62842693  0.37159494  0.91596393     0.84800
O575        O  0.65959426  0.38188257  0.93286813    -0.80100
O576        O  0.64222337  0.46892355  0.78362581    -0.77600
C577        C  0.62526721  0.37370487  0.87450193     0.83400
O578        O  0.72066520  0.35662040  0.77186178    -0.78700
O579        O  0.60641967  0.28252661  0.77675731    -0.80200
O580        O  0.53735554  0.39755879  0.75149958    -0.80000
O581        O  0.60755144  0.45876203  0.73100745    -0.78600
Zn582      Zn  0.65063003  0.41409282  0.80443725     1.55700
O583        O  0.53717220  0.35020376  0.79426446    -0.80000
Cd584      Cd  0.59372483  0.40265684  0.73634369     1.59700
Cd585      Cd  0.66836116  0.34938448  0.74180017     1.59600
O586        O  0.59956185  0.38148568  0.68347095    -0.80000
O587        O  0.62780937  0.37578551  0.77160280    -1.90500
Cd588      Cd  0.59628761  0.33770714  0.79957091     1.59900
O589        O  0.66162250  0.36372612  0.68359317    -0.80000
O590        O  0.61302171  0.34435125  0.85635982    -0.78600
C591        C  0.72947104  0.37790240  0.80043372     0.83900
C592        C  0.62585442  0.48092160  0.75303877     0.83600
O593        O  0.63355488  0.40517938  0.85805457    -0.77600
C594        C  0.51950788  0.37485782  0.77368653     0.84400
O595        O  0.70643714  0.40309600  0.81310616    -0.77700
C596        C  0.62994102  0.37130108  0.66614261     0.84500
C597        C  0.63220936  0.26997630  0.75367690     0.84800
O598        O  0.65831034  0.29146601  0.73998091    -0.80100
O599        O  0.85532238  0.46868917  0.58514964    -0.77600
C600        C  0.87097170  0.37297609  0.99404690     0.83400
O601        O  0.77618717  0.35690896  0.59640969    -0.78700
O602        O  0.89058361  0.28222748  0.59229599    -0.80200
O603        O  0.95936171  0.39670237  0.61503276    -0.80000
O604        O  0.88935951  0.45771312  0.63809162    -0.78600
Zn605      Zn  0.84637831  0.41403952  0.56406512     1.55700
O606        O  0.95863860  0.35016530  0.57153946    -0.80000
Cd607      Cd  0.90327427  0.40149408  0.63217819     1.59700
Cd608      Cd  0.82827069  0.34910288  0.62670645     1.59600
O609        O  0.89743471  0.37950205  0.68502614    -0.80000
O610        O  0.86876279  0.37543355  0.59695592    -1.90500
Cd611      Cd  0.89972567  0.33718741  0.56872786     1.59900
O612        O  0.83481493  0.36382445  0.68473526    -0.80000
O613        O  0.88210543  0.34321821  0.51232166    -0.78600
C614        C  0.76737026  0.37851576  0.56798294     0.83900
C615        C  0.87143047  0.48027978  0.61599235     0.83600
O616        O  0.86366563  0.40475572  0.51038293    -0.77600
C617        C  0.97666500  0.37481960  0.59157083     0.84400
O618        O  0.79040776  0.40374555  0.55541575    -0.77700
C619        C  0.86660531  0.37046727  0.70229856     0.84500
C620        C  0.86481541  0.26963830  0.61535559     0.84800
O621        O  0.83846191  0.29106223  0.62878547    -0.80100
O622        O  0.86130317  0.33817891  0.76125945    -0.77600
C623        C  0.86939504  0.26493831  0.86517707     0.83400
O624        O  0.77637456  0.39346276  0.84871916    -0.78700
O625        O  0.89813235  0.36018440  0.93473879    -0.80200
O626        O  0.95700215  0.39931603  0.81973955    -0.80000
O627        O  0.87951197  0.39971827  0.76100000    -0.78600
Zn628      Zn  0.84381107  0.33252907  0.81549489     1.55700
O629        O  0.96141002  0.35359799  0.86406312    -0.80000
Cd630      Cd  0.89752278  0.40799375  0.81671865     1.59700
Cd631      Cd  0.82966979  0.39717894  0.87851613     1.59600
O632        O  0.88804735  0.46289618  0.83850940    -0.80000
O633        O  0.86884896  0.37001914  0.84729745    -1.90500
Cd634      Cd  0.90553946  0.34281720  0.88001886     1.59900
O635        O  0.84329754  0.45433669  0.88351183    -0.80000
O636        O  0.89431820  0.28545126  0.88204077    -0.78600
C637        C  0.76696152  0.37270309  0.81992491     0.83900
C638        C  0.86861581  0.36938150  0.74378368     0.83600
O639        O  0.84780220  0.27848517  0.83873446    -0.77600
C640        C  0.97695400  0.37703284  0.84078224     0.84400
O641        O  0.78928199  0.34703404  0.80708798    -0.77700
C642        C  0.86719439  0.47555573  0.86593059     0.84500
C643        C  0.86813955  0.37094930  0.95258429     0.84800
O644        O  0.83658169  0.38004465  0.93565427    -0.80100
O645        O  0.13559293  0.41605212  0.50738290    -0.77600
C646        C  0.12743939  0.48969171  0.61097480     0.83400
O647        O  0.21980032  0.36057906  0.59463644    -0.78700
O648        O  0.09849597  0.39499676  0.68112655    -0.80200
O649        O  0.03831753  0.35504149  0.56854528    -0.80000
O650        O  0.11506566  0.35519786  0.50755082    -0.78600
Zn651      Zn  0.15283280  0.42184477  0.56153074     1.55700
O652        O  0.03498296  0.40135498  0.61216335    -0.80000
Cd653      Cd  0.09782091  0.34658907  0.56357092     1.59700
Cd654      Cd  0.16643465  0.35695976  0.62455065     1.59600
O655        O  0.10776850  0.29142871  0.58480803    -0.80000
O656        O  0.12733370  0.38440085  0.59348983    -1.90500
Cd657      Cd  0.09108617  0.41205811  0.62640119     1.59900
O658        O  0.15288609  0.29977873  0.62929773    -0.80000
O659        O  0.10244613  0.46927841  0.62796922    -0.78600
C660        C  0.22949171  0.38129511  0.56579363     0.83900
C661        C  0.12717024  0.38507182  0.99015509     0.83600
O662        O  0.14899015  0.47606560  0.58449889    -0.77600
C663        C  0.01888657  0.37743851  0.58996414     0.84400
O664        O  0.20742980  0.40719152  0.55294889    -0.77700
C665        C  0.12892583  0.27861182  0.61190242     0.84500
C666        C  0.12812314  0.38335590  0.69890528     0.84800
O667        O  0.15945172  0.37352104  0.68188884    -0.80100
O668        O  0.14270982  0.28590687  0.83182609    -0.77600
C669        C  0.12510305  0.38122092  0.74039656     0.83400
O670        O  0.22032820  0.39879817  0.84299344    -0.78700
O671        O  0.10514129  0.47209544  0.83825508    -0.80200
O672        O  0.03716425  0.35686522  0.86306319    -0.80000
O673        O  0.10784705  0.29625661  0.88443087    -0.78600
Zn674      Zn  0.15066762  0.34076572  0.81057171     1.55700
O675        O  0.03678260  0.40400454  0.82007240    -0.80000
Cd676      Cd  0.09349464  0.35228622  0.87870381     1.59700
Cd677      Cd  0.16779259  0.40552087  0.87308325     1.59600
O678        O  0.09902334  0.37401707  0.93144810    -0.80000
O679        O  0.12751434  0.37900532  0.84329469    -1.90500
Cd680      Cd  0.09577082  0.41693244  0.81530314     1.59900
O681        O  0.16130130  0.39081494  0.93116683    -0.80000
O682        O  0.11275727  0.41055996  0.75857408    -0.78600
C683        C  0.22931671  0.37736094  0.81455173     0.83900
C684        C  0.12639010  0.27402181  0.86253845     0.83600
O685        O  0.13361077  0.34975846  0.75684142    -0.77600
C686        C  0.01924102  0.37922251  0.84056255     0.84400
O687        O  0.20641219  0.35207311  0.80203155    -0.77700
C688        C  0.12953464  0.38371510  0.94870648     0.84500
C689        C  0.13054015  0.48463405  0.86163228     0.84800
O690        O  0.15672102  0.46323640  0.87536881    -0.80100
O691        O  0.35057353  0.28290294  0.52651090    -0.77600
C692        C  0.36993756  0.37694740  0.62021888     0.83400
O693        O  0.27615613  0.39648675  0.51738078    -0.78700
O694        O  0.39023639  0.46634653  0.52289261    -0.80200
O695        O  0.46038234  0.35498884  0.99917447    -0.80000
O696        O  0.39216522  0.29150195  0.97853312    -0.78600
Zn697      Zn  0.34481212  0.33702766  0.54981878     1.55700
O698        O  0.45814767  0.40019358  0.54393509    -0.80000
Cd699      Cd  0.40434362  0.34830155  0.98250345     1.59700
Cd700      Cd  0.32872691  0.40160628  0.98688905     1.59600
O701        O  0.39730880  0.36928208  0.92901742    -0.80000
O702        O  0.36868393  0.37447256  0.51699277    -1.90500
Cd703      Cd  0.39909143  0.41201034  0.54601804     1.59900
O704        O  0.33499260  0.38655026  0.92921990    -0.80000
O705        O  0.38091327  0.40659117  0.60185289    -0.78600
C706        C  0.26692433  0.37551026  0.54616559     0.83900
C707        C  0.36984583  0.27017656  0.49784937     0.83600
O708        O  0.36268032  0.34509491  0.60392233    -0.77600
C709        C  0.47696807  0.37666851  0.52322933     0.84400
O710        O  0.28944186  0.34986532  0.55884836    -0.77700
C711        C  0.36681913  0.37958051  0.91176824     0.84500
C712        C  0.36685690  0.47952606  0.49784898     0.84800
O713        O  0.34101632  0.45889657  0.98265013    -0.80100
O714        O  0.36205920  0.41359562  0.85358039    -0.77600
C715        C  0.37032847  0.48794026  0.74811590     0.83400
O716        O  0.27609482  0.36121046  0.76634081    -0.78700
O717        O  0.39764277  0.39023296  0.67905251    -0.80200
O718        O  0.45739190  0.35423906  0.79415969    -0.80000
O719        O  0.37998552  0.35194287  0.85242008    -0.78600
Zn720      Zn  0.34461141  0.42087692  0.79923725     1.57300
O721        O  0.46150514  0.39942990  0.74931274    -0.80000
Cd722      Cd  0.39807800  0.34532453  0.79677110     1.59700
Cd723      Cd  0.32912056  0.35653740  0.73640292     1.59600
O724        O  0.38873062  0.29103191  0.77454646    -0.80000
O725        O  0.36893990  0.38338864  0.76687564    -1.90500
Cd726      Cd  0.40546993  0.40957548  0.73315949     1.59900
O727        O  0.34188170  0.29933403  0.73177689    -0.80000
O728        O  0.39420694  0.46696748  0.73018796    -0.78600
C729        C  0.26690008  0.38221779  0.79504291     0.83900
C730        C  0.36916564  0.38187881  0.87033243     0.83600
O731        O  0.34970212  0.47485375  0.77564096    -0.77600
C732        C  0.47720239  0.37649090  0.77300199     0.84400
O733        O  0.28954089  0.40760278  0.80775334    -0.77700
C734        C  0.36670371  0.27831354  0.74824125     0.84500
C735        C  0.36738156  0.37961316  0.66165153     0.84800
O736        O  0.33561640  0.37209853  0.67894527    -0.80100
O737        O  0.64226920  0.53306227  0.21258613    -0.77600
C738        C  0.62667434  0.62524225  0.11864415     0.83400
O739        O  0.72223549  0.64125444  0.22273306    -0.78700
O740        O  0.60899136  0.71786847  0.21657931    -0.80200
O741        O  0.53613890  0.60657081  0.23878503    -0.80000
O742        O  0.60592630  0.54383851  0.26412491    -0.78600
Zn743      Zn  0.64962641  0.58660126  0.18956350     1.55700
O744        O  0.54012815  0.65288198  0.19486172    -0.80000
Cd745      Cd  0.59206756  0.60027972  0.25675075     1.59700
Cd746      Cd  0.66911279  0.64940594  0.25267582     1.59600
O747        O  0.59771374  0.62343300  0.30922862    -0.80000
O748        O  0.62812781  0.62522248  0.22189196    -1.90500
Cd749      Cd  0.59952315  0.66374937  0.19208087     1.59900
O750        O  0.66195358  0.62944861  0.30945596    -0.80000
O751        O  0.61883166  0.65666428  0.13574750    -0.78600
C752        C  0.72982055  0.61986098  0.19382355     0.83900
C753        C  0.62557293  0.52152680  0.24315288     0.83600
O754        O  0.63035016  0.59358072  0.13639511    -0.77600
C755        C  0.52055191  0.62936820  0.21499466     0.84400
O756        O  0.70515778  0.59685482  0.18038544    -0.77700
C757        C  0.62947432  0.62607360  0.32690371     0.84500
C758        C  0.63260037  0.72951647  0.24213422     0.84800
O759        O  0.65772291  0.70752110  0.25714935    -0.80100
O760        O  0.64315374  0.52921928  0.46229882    -0.77600
C761        C  0.62748962  0.62436106  0.36840886     0.83400
O762        O  0.72227022  0.63762588  0.47253185    -0.78700
O763        O  0.60964115  0.71263254  0.46665118    -0.80200
O764        O  0.53613812  0.60482133  0.98871120    -0.80000
O765        O  0.60314476  0.53862801  0.51140862    -0.78600
Zn766      Zn  0.64950486  0.58307136  0.43860860     1.55700
O767        O  0.54002613  0.65014233  0.44394642    -0.80000
Cd768      Cd  0.59159808  0.59606320  0.00623190     1.59700
Cd769      Cd  0.66924208  0.64572029  0.00255534     1.59600
O770        O  0.59774752  0.61862036  0.05928825    -0.80000
O771        O  0.62817529  0.62100285  0.47185800    -1.90500
Cd772      Cd  0.59972196  0.65961569  0.44225898     1.59900
O773        O  0.66161966  0.62813785  0.05986777    -0.80000
O774        O  0.61971936  0.65498680  0.38667440    -0.78600
C775        C  0.72962363  0.61670389  0.44321419     0.83900
C776        C  0.62473897  0.51683838  0.49165804     0.83600
O777        O  0.63074211  0.59188083  0.38490802    -0.77600
C778        C  0.52033135  0.62742338  0.46483934     0.84400
O779        O  0.70489727  0.59388786  0.42958250    -0.77700
C780        C  0.62902665  0.62457720  0.07706223     0.84500
C781        C  0.63279393  0.72500826  0.49216566     0.84800
O782        O  0.65831164  0.70374248  0.50744405    -0.80100
O783        O  0.85579285  0.53237590  0.15691589    -0.77600
C784        C  0.87212024  0.62466885  0.25048334     0.83400
O785        O  0.77577952  0.64094189  0.14672481    -0.78700
O786        O  0.88853963  0.71751956  0.15243383    -0.80200
O787        O  0.96126886  0.60516787  0.12977914    -0.80000
O788        O  0.89104096  0.54329385  0.10467521    -0.78600
Zn789      Zn  0.84854544  0.58609482  0.17988280     1.55700
O790        O  0.95821103  0.65260094  0.17242111    -0.80000
Cd791      Cd  0.90531560  0.59954935  0.11235829     1.59700
Cd792      Cd  0.82870786  0.64896461  0.11651026     1.59600
O793        O  0.90014602  0.62347575  0.06014654    -0.80000
O794        O  0.86975508  0.62478736  0.14737588    -1.90500
Cd795      Cd  0.89874813  0.66328899  0.17667682     1.59900
O796        O  0.83589536  0.62885495  0.05971465    -0.80000
O797        O  0.88011735  0.65603828  0.23327716    -0.78600
C798        C  0.76832525  0.61976343  0.17587851     0.83900
C799        C  0.87189926  0.52089075  0.12601511     0.83600
O800        O  0.86826251  0.59303622  0.23284851    -0.77600
C801        C  0.97735062  0.62858937  0.15244359     0.84400
O802        O  0.79303107  0.59671047  0.18941292    -0.77700
C803        C  0.86845366  0.62573179  0.04233184     0.84500
C804        C  0.86472322  0.72916728  0.12699291     0.84800
O805        O  0.83978184  0.70710334  0.11198268    -0.80100
O806        O  0.85348866  0.52824846  0.40751810    -0.77600
C807        C  0.87065933  0.62368811  0.50082171     0.83400
O808        O  0.77571757  0.63760941  0.39604210    -0.78700
O809        O  0.88953042  0.71194841  0.40232633    -0.80200
O810        O  0.96185481  0.60054490  0.38005432    -0.80000
O811        O  0.89272046  0.53732071  0.35774844    -0.78600
Zn812      Zn  0.84793995  0.58237954  0.43071490     1.55700
O813        O  0.95859765  0.64779610  0.42279640    -0.80000
Cd814      Cd  0.90593020  0.59406262  0.36303732     1.59700
Cd815      Cd  0.82913586  0.64557177  0.36652348     1.59600
O816        O  0.90058174  0.61686328  0.30995011    -0.80000
O817        O  0.86985638  0.62007662  0.39730133    -1.90500
Cd818      Cd  0.89916540  0.65833260  0.42630337     1.59900
O819        O  0.83703461  0.62851272  0.30910868    -0.80000
O820        O  0.88009519  0.65377960  0.48233662    -0.78600
C821        C  0.76809411  0.61659351  0.42529185     0.83900
C822        C  0.87119448  0.51579027  0.37779399     0.83600
O823        O  0.86588680  0.59132005  0.48461670    -0.77600
C824        C  0.97783926  0.62396738  0.40274764     0.84400
O825        O  0.79267204  0.59365303  0.43912250    -0.77700
C826        C  0.86959198  0.62398009  0.29206114     0.84500
C827        C  0.86610312  0.72467359  0.37713497     0.84800
O828        O  0.84037341  0.70360784  0.36209210    -0.80100
O829        O  0.14346251  0.72576207  0.15308641    -0.77600
C830        C  0.12592225  0.63121042  0.24702546     0.83400
O831        O  0.22098995  0.61602470  0.14301287    -0.78700
O832        O  0.10789738  0.54235366  0.14876195    -0.80200
O833        O  0.03479000  0.65282940  0.12775417    -0.80000
O834        O  0.10323825  0.71681438  0.10423054    -0.78600
Zn835      Zn  0.14885320  0.67182081  0.17682821     1.55700
O836        O  0.03916416  0.60648713  0.17154854    -0.80000
Cd837      Cd  0.09056754  0.65985302  0.10957442     1.59700
Cd838      Cd  0.16793229  0.60897182  0.11286809     1.59600
O839        O  0.09670669  0.63738425  0.05633234    -0.80000
O840        O  0.12709520  0.63421068  0.14361181    -1.90500
Cd841      Cd  0.09855320  0.59577525  0.17319653     1.59900
O842        O  0.16055328  0.62714247  0.05575875    -0.80000
O843        O  0.11828916  0.60052917  0.22884112    -0.78600
C844        C  0.22853028  0.63676593  0.17238087     0.83900
C845        C  0.12517388  0.73829795  0.12376006     0.83600
O846        O  0.12940274  0.66359811  0.23040857    -0.77600
C847        C  0.01940482  0.62999648  0.15162423     0.84400
O848        O  0.20405571  0.65998415  0.18600482    -0.77700
C849        C  0.12805927  0.63117610  0.03856069     0.84500
C850        C  0.13090774  0.52987165  0.12302577     0.84800
O851        O  0.15641380  0.55107590  0.10765926    -0.80100
O852        O  0.14411343  0.72144069  0.40213272    -0.77600
C853        C  0.12597079  0.63027506  0.49696536     0.83400
O854        O  0.21967509  0.61010651  0.39255894    -0.78700
O855        O  0.10841101  0.53650762  0.40002240    -0.80200
O856        O  0.03518899  0.64864371  0.37830511    -0.80000
O857        O  0.10469955  0.71158941  0.35278840    -0.78600
Zn858      Zn  0.15014222  0.66773504  0.42565316     1.55700
O859        O  0.03960599  0.60172849  0.42158342    -0.80000
Cd860      Cd  0.09085357  0.65511922  0.35953663     1.59700
Cd861      Cd  0.16698631  0.60488447  0.36210504     1.59600
O862        O  0.09622897  0.63283082  0.30645464    -0.80000
O863        O  0.12708073  0.62958263  0.39371431    -1.90500
Cd864      Cd  0.09895279  0.59101462  0.42400065     1.59900
O865        O  0.16036969  0.62565447  0.30574686    -0.80000
O866        O  0.11813228  0.59873485  0.48015800    -0.78600
C867        C  0.22852482  0.63044484  0.42184137     0.83900
C868        C  0.12601078  0.73339902  0.37253572     0.83600
O869        O  0.13011710  0.66172521  0.47889184    -0.77600
C870        C  0.01985888  0.62550704  0.40194876     0.84400
O871        O  0.20539359  0.65511256  0.43535485    -0.77700
C872        C  0.12789596  0.62962639  0.28853654     0.84500
C873        C  0.13071190  0.52507591  0.37312866     0.84800
O874        O  0.15465052  0.54729166  0.35674400    -0.80100
O875        O  0.35182764  0.72547989  0.20760288    -0.77600
C876        C  0.37115341  0.63138163  0.11473081     0.83400
O877        O  0.27509283  0.61445427  0.21850966    -0.78700
O878        O  0.39108302  0.54163645  0.21195475    -0.80200
O879        O  0.46182568  0.65333242  0.23707692    -0.80000
O880        O  0.39257271  0.71694376  0.25609284    -0.78600
Zn881      Zn  0.34650622  0.67140348  0.18500712     1.55700
O882        O  0.45973413  0.60701264  0.19339374    -0.80000
Cd883      Cd  0.40517951  0.66031181  0.25225389     1.59700
Cd884      Cd  0.32875273  0.60662933  0.24764653     1.59600
O885        O  0.39774783  0.64008665  0.30583394    -0.80000
O886        O  0.36958641  0.63363705  0.21798503    -1.90500
Cd887      Cd  0.40050905  0.59611232  0.18923466     1.59900
O888        O  0.33606929  0.62079670  0.30567970    -0.80000
O889        O  0.38306280  0.60204486  0.13309979    -0.78600
C890        C  0.26704485  0.63648522  0.19015470     0.83900
C891        C  0.37040082  0.73817990  0.23654548     0.83600
O892        O  0.36340036  0.66315043  0.13091195    -0.77600
C893        C  0.47845674  0.63049586  0.21413350     0.84400
O894        O  0.29125641  0.66020652  0.17712938    -0.77700
C895        C  0.36762219  0.62882408  0.32309916     0.84500
C896        C  0.36703916  0.52828160  0.23631086     0.84800
O897        O  0.34054937  0.54883498  0.25084744    -0.80100
O898        O  0.36135917  0.59493283  0.38116310    -0.77600
C899        C  0.36996316  0.51981283  0.48627830     0.83400
O900        O  0.27574424  0.64635156  0.46956011    -0.78700
O901        O  0.39781761  0.61693067  0.05578756    -0.80200
O902        O  0.45953986  0.65138430  0.44281105    -0.80000
O903        O  0.38267448  0.65547411  0.38263500    -0.78600
Zn904      Zn  0.34444179  0.58725410  0.43553287     1.55700
O905        O  0.46077930  0.60529181  0.98680280    -0.80000
Cd906      Cd  0.40000752  0.66205678  0.43877970     1.59700
Cd907      Cd  0.32921243  0.65166843  0.99858255     1.59600
O908        O  0.39005928  0.71673637  0.46101227    -0.80000
O909        O  0.36906466  0.62458778  0.46792742    -1.90500
Cd910      Cd  0.40464296  0.59754318  0.00192693     1.59900
O911        O  0.34143954  0.70902114  0.50213524    -0.80000
O912        O  0.39298309  0.54074071  0.50501318    -0.78600
C913        C  0.26634252  0.62543484  0.44089257     0.83900
C914        C  0.37016615  0.62627091  0.36457483     0.83600
O915        O  0.34996787  0.53296990  0.45836880    -0.77600
C916        C  0.47796878  0.62789512  0.46399230     0.84400
O917        O  0.28909825  0.60031170  0.42765014    -0.77700
C918        C  0.36686555  0.72983613  0.48633598     0.84500
C919        C  0.36804308  0.62853457  0.07338591     0.84800
O920        O  0.33638517  0.63694354  0.05634137    -0.80100
O921        O  0.63640532  0.83889762  0.10754878    -0.77600
C922        C  0.62924374  0.76513935  0.00407957     0.83400
O923        O  0.72019816  0.89446234  0.01986394    -0.78700
O924        O  0.59905352  0.85952083  0.43383893    -0.80200
O925        O  0.53800616  0.89810031  0.04615869    -0.80000
O926        O  0.61469851  0.89941029  0.10726352    -0.78600
Zn927      Zn  0.65338725  0.83307526  0.05335753     1.55700
O928        O  0.53598480  0.85160876  0.50268277    -0.80000
Cd929      Cd  0.59737011  0.90785067  0.05120898     1.59700
Cd930      Cd  0.66663892  0.89820689  0.49032576     1.59600
O931        O  0.60669611  0.96331406  0.03004080    -0.80000
O932        O  0.62775770  0.87043774  0.02140504    -1.90500
Cd933      Cd  0.59221061  0.84232967  0.48845531     1.59900
O934        O  0.65265798  0.95537966  0.48613215    -0.80000
O935        O  0.60447470  0.78549260  0.48675567    -0.78600
C936        C  0.72983617  0.87354742  0.04857138     0.83900
C937        C  0.62745273  0.86979757  0.12470463     0.83600
O938        O  0.65028821  0.77876666  0.03080966    -0.77600
C939        C  0.51922443  0.87516415  0.02483500     0.84400
O940        O  0.70768934  0.84780222  0.06143896    -0.77700
C941        C  0.62825435  0.97638219  0.00331205     0.84500
C942        C  0.62842678  0.87159477  0.41596437     0.84800
O943        O  0.65959425  0.88188255  0.43286797    -0.80100
O944        O  0.64222326  0.96892347  0.28362574    -0.77600
C945        C  0.62526737  0.87370509  0.37450266     0.83400
O946        O  0.72066521  0.85662054  0.27186207    -0.78700
O947        O  0.60641940  0.78252669  0.27675761    -0.80200
O948        O  0.53735514  0.89755892  0.25149974    -0.80000
O949        O  0.60755142  0.95876219  0.23100725    -0.78600
Zn950      Zn  0.65063003  0.91409280  0.30443723     1.55700
O951        O  0.53717185  0.85020384  0.29426444    -0.80000
Cd952      Cd  0.59372474  0.90265692  0.23634357     1.59700
Cd953      Cd  0.66836106  0.84938443  0.24180024     1.59600
O954        O  0.59956188  0.88148562  0.18347063    -0.80000
O955        O  0.62780921  0.87578556  0.27160293    -1.90500
Cd956      Cd  0.59628753  0.83770707  0.29957096     1.59900
O957        O  0.66162250  0.86372619  0.18359335    -0.80000
O958        O  0.61302172  0.84435107  0.35635955    -0.78600
C959        C  0.72947054  0.87790225  0.30043331     0.83900
C960        C  0.62585452  0.98092121  0.25303915     0.83600
O961        O  0.63355497  0.90517950  0.35805434    -0.77600
C962        C  0.51950877  0.87485812  0.27368618     0.84400
O963        O  0.70643733  0.90309603  0.31310620    -0.77700
C964        C  0.62994054  0.87130105  0.16614327     0.84500
C965        C  0.63221013  0.76997577  0.25367639     0.84800
O966        O  0.65831013  0.79146578  0.23998101    -0.80100
O967        O  0.85532238  0.96868908  0.08514978    -0.77600
C968        C  0.87097183  0.87297668  0.49404745     0.83400
O969        O  0.77618718  0.85690880  0.09640972    -0.78700
O970        O  0.89058372  0.78222736  0.09229591    -0.80200
O971        O  0.95936146  0.89670245  0.11503258    -0.80000
O972        O  0.88935959  0.95771321  0.13809169    -0.78600
Zn973      Zn  0.84637828  0.91403946  0.06406508     1.55700
O974        O  0.95863849  0.85016527  0.07153926    -0.80000
Cd975      Cd  0.90327421  0.90149412  0.13217807     1.59700
Cd976      Cd  0.82827079  0.84910280  0.12670633     1.59600
O977        O  0.89743434  0.87950206  0.18502609    -0.80000
O978        O  0.86876296  0.87543331  0.09695554    -1.90500
Cd979      Cd  0.89972574  0.83718736  0.06872776     1.59900
O980        O  0.83481466  0.86382432  0.18473492    -0.80000
O981        O  0.88210537  0.84321809  0.01232159    -0.78600
C982        C  0.76737013  0.87851583  0.06798271     0.83900
C983        C  0.87143002  0.98027991  0.11599203     0.83600
O984        O  0.86366573  0.90475569  0.01038289    -0.77600
C985        C  0.97666529  0.87481981  0.09157087     0.84400
O986        O  0.79040758  0.90374546  0.05541575    -0.77700
C987        C  0.86660652  0.87046739  0.20229812     0.84500
C988        C  0.86481487  0.76963917  0.11535585     0.84800
O989        O  0.83846229  0.79106188  0.12878539    -0.80100
O990        O  0.86130305  0.83817866  0.26125959    -0.77600
C991        C  0.86939506  0.76493766  0.36517733     0.83400
O992        O  0.77637479  0.89346299  0.34871942    -0.78700
O993        O  0.89813254  0.86018423  0.43473857    -0.80200
O994        O  0.95700246  0.89931608  0.31973959    -0.80000
O995        O  0.87951190  0.89971782  0.26099948    -0.78600
Zn996      Zn  0.84381105  0.83252905  0.31549491     1.55700
O997        O  0.96141031  0.85359806  0.36406286    -0.80000
Cd998      Cd  0.89752286  0.90799381  0.31671853     1.59700
Cd999      Cd  0.82966975  0.89717901  0.37851612     1.59600
O1000       O  0.88804763  0.96289617  0.33850902    -0.80000
O1001       O  0.86884914  0.87001938  0.34729753    -1.90500
Cd1002     Cd  0.90553953  0.84281715  0.38001874     1.59900
O1003       O  0.84329773  0.95433695  0.38351171    -0.80000
O1004       O  0.89431821  0.78545113  0.38204077    -0.78600
C1005       C  0.76696086  0.87270307  0.31992436     0.83900
C1006       C  0.86861620  0.86938278  0.24378429     0.83600
O1007       O  0.84780199  0.77848520  0.33873440    -0.77600
C1008       C  0.97695335  0.87703246  0.34078252     0.84400
O1009       O  0.78928230  0.84703406  0.30708812    -0.77700
C1010       C  0.86719374  0.97555598  0.36593140     0.84500
C1011       C  0.86813864  0.87094961  0.45258380     0.84800
O1012       O  0.83658198  0.88004459  0.43565460    -0.80100
O1013       O  0.13559303  0.91605200  0.00738300    -0.77600
C1014       C  0.12743979  0.98969131  0.11097450     0.83400
O1015       O  0.21980039  0.86057907  0.09463648    -0.78700
O1016       O  0.09849610  0.89499662  0.18112654    -0.80200
O1017       O  0.03831725  0.85504160  0.06854524    -0.80000
O1018       O  0.11506552  0.85519772  0.00755113    -0.78600
Zn1019     Zn  0.15283286  0.92184484  0.06153077     1.55700
O1020       O  0.03498261  0.90135494  0.11216313    -0.80000
Cd1021     Cd  0.09782085  0.84658902  0.06357093     1.59700
Cd1022     Cd  0.16643461  0.85695970  0.12455067     1.59600
O1023       O  0.10776834  0.79142864  0.08480794    -0.80000
O1024       O  0.12733357  0.88440085  0.09348989    -1.90500
Cd1025     Cd  0.09108610  0.91205805  0.12640112     1.59900
O1026       O  0.15288600  0.79977874  0.12929775    -0.80000
O1027       O  0.10244604  0.96927838  0.12796924    -0.78600
C1028       C  0.22949091  0.88129540  0.06579387     0.83900
C1029       C  0.12717064  0.88507252  0.49015496     0.83600
O1030       O  0.14899007  0.97606575  0.08449908    -0.77600
C1031       C  0.01888727  0.87743870  0.08996421     0.84400
O1032       O  0.20743015  0.90719140  0.05294887    -0.77700
C1033       C  0.12892631  0.77861120  0.11190291     0.84500
C1034       C  0.12812241  0.88335623  0.19890491     0.84800
O1035       O  0.15945177  0.87352098  0.18188895    -0.80100
O1036       O  0.14271012  0.78590701  0.33182585    -0.77600
C1037       C  0.12510306  0.88122085  0.24039617     0.83400
O1038       O  0.22032802  0.89879826  0.34299339    -0.78700
O1039       O  0.10514151  0.97209576  0.33825514    -0.80200
O1040       O  0.03716420  0.85686534  0.36306303    -0.80000
O1041       O  0.10784719  0.79625652  0.38443067    -0.78600
Zn1042     Zn  0.15066772  0.84076570  0.31057178     1.55700
O1043       O  0.03678277  0.90400471  0.32007233    -0.80000
Cd1044     Cd  0.09349471  0.85228631  0.37870379     1.59700
Cd1045     Cd  0.16779254  0.90552094  0.37308331     1.59600
O1046       O  0.09902306  0.87401703  0.43144814    -0.80000
O1047       O  0.12751431  0.87900554  0.34329456    -1.90500
Cd1048     Cd  0.09577089  0.91693254  0.31530305     1.59900
O1049       O  0.16130118  0.89081489  0.43116682    -0.80000
O1050       O  0.11275727  0.91056010  0.25857416    -0.78600
C1051       C  0.22931721  0.87736121  0.31455160     0.83900
C1052       C  0.12638959  0.77402149  0.36253929     0.83600
O1053       O  0.13361102  0.84975851  0.25684142    -0.77600
C1054       C  0.01924174  0.87922235  0.34056280     0.84400
O1055       O  0.20641218  0.85207286  0.30203166    -0.77700
C1056       C  0.12953557  0.88371522  0.44870716     0.84500
C1057       C  0.13053995  0.98463348  0.36163206     0.84800
O1058       O  0.15672097  0.96323668  0.37536905    -0.80100
O1059       O  0.35057355  0.78290311  0.02651100    -0.77600
C1060       C  0.36993765  0.87694806  0.12021858     0.83400
O1061       O  0.27615593  0.89648676  0.01738100    -0.78700
O1062       O  0.39023661  0.96634622  0.02289274    -0.80200
O1063       O  0.46038265  0.85498876  0.49917458    -0.80000
O1064       O  0.39216517  0.79150200  0.47853322    -0.78600
Zn1065     Zn  0.34481213  0.83702763  0.04981867     1.55700
O1066       O  0.45814804  0.90019346  0.04393509    -0.80000
Cd1067     Cd  0.40434368  0.84830149  0.48250351     1.59700
Cd1068     Cd  0.32872703  0.90160619  0.48688911     1.59600
O1069       O  0.39730890  0.86928199  0.42901770    -0.80000
O1070       O  0.36868428  0.87447253  0.01699244    -1.90500
Cd1071     Cd  0.39909149  0.91201025  0.04601795     1.59900
O1072       O  0.33499272  0.88655019  0.42921995    -0.80000
O1073       O  0.38091329  0.90659087  0.10185297    -0.78600
C1074       C  0.26692525  0.87551024  0.04616498     0.83900
C1075       C  0.36984596  0.77017609  0.99784919     0.83600
O1076       O  0.36268010  0.84509475  0.10392214    -0.77600
C1077       C  0.47696712  0.87666846  0.02322919     0.84400
O1078       O  0.28944179  0.84986537  0.05884816    -0.77700
C1079       C  0.36681911  0.87958054  0.41176763     0.84500
C1080       C  0.36685669  0.97952707  0.99784876     0.84800
O1081       O  0.34101657  0.95889663  0.48265023    -0.80100
O1082       O  0.36205920  0.91359553  0.35358035    -0.77600
C1083       C  0.37032850  0.98794072  0.24811564     0.83400
O1084       O  0.27609489  0.86121028  0.26634062    -0.78700
O1085       O  0.39764263  0.89023301  0.17905260    -0.80200
O1086       O  0.45739221  0.85423923  0.29415974    -0.80000
O1087       O  0.37998562  0.85194260  0.35241965    -0.78600
Zn1088     Zn  0.34461137  0.92087688  0.29923724     1.57300
O1089       O  0.46150539  0.89942987  0.24931275    -0.80000
Cd1090     Cd  0.39807810  0.84532462  0.29677098     1.59700
Cd1091     Cd  0.32912048  0.85653747  0.23640295     1.59600
O1092       O  0.38873074  0.79103183  0.27454626    -0.80000
O1093       O  0.36893976  0.88338887  0.26687548    -1.90500
Cd1094     Cd  0.40546985  0.90957553  0.23315938     1.59900
O1095       O  0.34188163  0.79933411  0.23177695    -0.80000
O1096       O  0.39420691  0.96696738  0.23018798    -0.78600
C1097       C  0.26689920  0.88221779  0.29504345     0.83900
C1098       C  0.36916542  0.88187947  0.37033329     0.83600
O1099       O  0.34970200  0.97485365  0.27564110    -0.77600
C1100       C  0.47720146  0.87649124  0.27300151     0.84400
O1101       O  0.28954083  0.90760270  0.30775341    -0.77700
C1102       C  0.36670395  0.77831404  0.24824140     0.84500
C1103       C  0.36738178  0.87961323  0.16165082     0.84800
O1104       O  0.33561608  0.87209857  0.17894555    -0.80100
O1105       O  0.64226935  0.53306234  0.71258596    -0.77600
C1106       C  0.62667436  0.62524202  0.61864343     0.83400
O1107       O  0.72223541  0.64125448  0.72273318    -0.78700
O1108       O  0.60899135  0.71786845  0.71657926    -0.80200
O1109       O  0.53613883  0.60657082  0.73878490    -0.80000
O1110       O  0.60592643  0.54383844  0.76412476    -0.78600
Zn1111     Zn  0.64962642  0.58660120  0.68956352     1.55700
O1112       O  0.54012821  0.65288203  0.69486161    -0.80000
Cd1113     Cd  0.59206755  0.60027981  0.75675070     1.59700
Cd1114     Cd  0.66911280  0.64940591  0.75267590     1.59600
O1115       O  0.59771381  0.62343301  0.80922891    -0.80000
O1116       O  0.62812792  0.62522254  0.72189197    -1.90500
Cd1117     Cd  0.59952317  0.66374932  0.69208083     1.59900
O1118       O  0.66195351  0.62944859  0.80945638    -0.80000
O1119       O  0.61883165  0.65666432  0.63574764    -0.78600
C1120       C  0.72982073  0.61986096  0.69382329     0.83900
C1121       C  0.62557247  0.52152703  0.74315345     0.83600
O1122       O  0.63035020  0.59358065  0.63639503    -0.77600
C1123       C  0.52055180  0.62936795  0.71499481     0.84400
O1124       O  0.70515784  0.59685472  0.68038557    -0.77700
C1125       C  0.62947432  0.62607363  0.82690271     0.84500
C1126       C  0.63260032  0.72951644  0.74213414     0.84800
O1127       O  0.65772284  0.70752110  0.75714940    -0.80100
O1128       O  0.64315374  0.52921935  0.96229874    -0.77600
C1129       C  0.62748943  0.62436150  0.86841001     0.83400
O1130       O  0.72227015  0.63762593  0.97253209    -0.78700
O1131       O  0.60964122  0.71263280  0.96665126    -0.80200
O1132       O  0.53613801  0.60482135  0.48871116    -0.80000
O1133       O  0.60314473  0.53862819  0.01140866    -0.78600
Zn1134     Zn  0.64950484  0.58307135  0.93860860     1.55700
O1135       O  0.54002604  0.65014223  0.94394635    -0.80000
Cd1136     Cd  0.59159806  0.59606316  0.50623187     1.59700
Cd1137     Cd  0.66924207  0.64572024  0.50255530     1.59600
O1138       O  0.59774739  0.61862026  0.55928790    -0.80000
O1139       O  0.62817534  0.62100289  0.97185791    -1.90500
Cd1140     Cd  0.59972196  0.65961567  0.94225893     1.59900
O1141       O  0.66161968  0.62813767  0.55986764    -0.80000
O1142       O  0.61971951  0.65498657  0.88667402    -0.78600
C1143       C  0.72962387  0.61670369  0.94321382     0.83900
C1144       C  0.62473895  0.51683783  0.99165831     0.83600
O1145       O  0.63074202  0.59188081  0.88490772    -0.77600
C1146       C  0.52033138  0.62742377  0.96483911     0.84400
O1147       O  0.70489721  0.59388788  0.92958251    -0.77700
C1148       C  0.62902688  0.62457726  0.57706286     0.84500
C1149       C  0.63279394  0.72500744  0.99216539     0.84800
O1150       O  0.65831156  0.70374281  0.00744404    -0.80100
O1151       O  0.85579300  0.53237572  0.65691555    -0.77600
C1152       C  0.87212019  0.62466900  0.75048394     0.83400
O1153       O  0.77577964  0.64094202  0.64672462    -0.78700
O1154       O  0.88853958  0.71751967  0.65243373    -0.80200
O1155       O  0.96126898  0.60516811  0.62977920    -0.80000
O1156       O  0.89104109  0.54329386  0.60467504    -0.78600
Zn1157     Zn  0.84854547  0.58609486  0.67988277     1.55700
O1158       O  0.95821094  0.65260109  0.67242115    -0.80000
Cd1159     Cd  0.90531564  0.59954934  0.61235823     1.59700
Cd1160     Cd  0.82870785  0.64896456  0.61651020     1.59600
O1161       O  0.90014602  0.62347579  0.56014653    -0.80000
O1162       O  0.86975519  0.62478755  0.64737581    -1.90500
Cd1163     Cd  0.89874813  0.66328909  0.67667676     1.59900
O1164       O  0.83589544  0.62885475  0.55971444    -0.80000
O1165       O  0.88011739  0.65603832  0.73327707    -0.78600
C1166       C  0.76832508  0.61976313  0.67587906     0.83900
C1167       C  0.87189885  0.52089104  0.62601589     0.83600
O1168       O  0.86826249  0.59303614  0.73284822    -0.77600
C1169       C  0.97735057  0.62858910  0.65244329     0.84400
O1170       O  0.79303101  0.59671051  0.68941285    -0.77700
C1171       C  0.86845347  0.62573182  0.54233250     0.84500
C1172       C  0.86472309  0.72916769  0.62699278     0.84800
O1173       O  0.83978181  0.70710333  0.61198258    -0.80100
O1174       O  0.85348853  0.52824849  0.90751818    -0.77600
C1175       C  0.87065926  0.62368820  0.00082232     0.83400
O1176       O  0.77571754  0.63760932  0.89604242    -0.78700
O1177       O  0.88953037  0.71194833  0.90232624    -0.80200
O1178       O  0.96185480  0.60054484  0.88005424    -0.80000
O1179       O  0.89272050  0.53732075  0.85774849    -0.78600
Zn1180     Zn  0.84793993  0.58237959  0.93071482     1.55700
O1181       O  0.95859765  0.64779610  0.92279626    -0.80000
Cd1182     Cd  0.90593018  0.59406259  0.86303729     1.59700
Cd1183     Cd  0.82913584  0.64557188  0.86652346     1.59600
O1184       O  0.90058177  0.61686329  0.80995008    -0.80000
O1185       O  0.86985638  0.62007681  0.89730108    -1.90500
Cd1186     Cd  0.89916541  0.65833269  0.92630329     1.59900
O1187       O  0.83703450  0.62851276  0.80910883    -0.80000
O1188       O  0.88009527  0.65377973  0.98233650    -0.78600
C1189       C  0.76809415  0.61659423  0.92529105     0.83900
C1190       C  0.87119449  0.51578993  0.87779359     0.83600
O1191       O  0.86588680  0.59132000  0.98461653    -0.77600
C1192       C  0.97783924  0.62396733  0.90274752     0.84400
O1193       O  0.79267204  0.59365291  0.93912254    -0.77700
C1194       C  0.86959213  0.62398005  0.79206046     0.84500
C1195       C  0.86610352  0.72467434  0.87713498     0.84800
O1196       O  0.84037327  0.70360768  0.86209192    -0.80100
O1197       O  0.14346251  0.72576240  0.65308630    -0.77600
C1198       C  0.12592216  0.63121045  0.74702481     0.83400
O1199       O  0.22098998  0.61602496  0.64301320    -0.78700
O1200       O  0.10789735  0.54235375  0.64876186    -0.80200
O1201       O  0.03479009  0.65282957  0.62775386    -0.80000
O1202       O  0.10323820  0.71681438  0.60423061    -0.78600
Zn1203     Zn  0.14885322  0.67182087  0.67682829     1.55700
O1204       O  0.03916414  0.60648741  0.67154847    -0.80000
Cd1205     Cd  0.09056756  0.65985304  0.60957439     1.59700
Cd1206     Cd  0.16793232  0.60897178  0.61286808     1.59600
O1207       O  0.09670673  0.63738424  0.55633223    -0.80000
O1208       O  0.12709532  0.63421094  0.64361184    -1.90500
Cd1209     Cd  0.09855321  0.59577537  0.67319650     1.59900
O1210       O  0.16055339  0.62714237  0.55575889    -0.80000
O1211       O  0.11828925  0.60052930  0.72884119    -0.78600
C1212       C  0.22853037  0.63676507  0.67238010     0.83900
C1213       C  0.12517394  0.73829742  0.62376049     0.83600
O1214       O  0.12940273  0.66359813  0.73040875    -0.77600
C1215       C  0.01940470  0.62999585  0.65162504     0.84400
O1216       O  0.20405554  0.65998432  0.68600506    -0.77700
C1217       C  0.12805902  0.63117621  0.53856031     0.84500
C1218       C  0.13090782  0.52987200  0.62302568     0.84800
O1219       O  0.15641370  0.55107561  0.60765917    -0.80100
O1220       O  0.14411337  0.72144075  0.90213257    -0.77600
C1221       C  0.12597091  0.63027618  0.99696522     0.83400
O1222       O  0.21967508  0.61010655  0.89255892    -0.78700
O1223       O  0.10841106  0.53650781  0.90002232    -0.80200
O1224       O  0.03518897  0.64864374  0.87830502    -0.80000
O1225       O  0.10469959  0.71158957  0.85278821    -0.78600
Zn1226     Zn  0.15014223  0.66773502  0.92565310     1.55700
O1227       O  0.03960599  0.60172853  0.92158333    -0.80000
Cd1228     Cd  0.09085357  0.65511933  0.85953657     1.59700
Cd1229     Cd  0.16698632  0.60488444  0.86210499     1.59600
O1230       O  0.09622896  0.63283085  0.80645458    -0.80000
O1231       O  0.12708072  0.62958277  0.89371394    -1.90500
Cd1232     Cd  0.09895279  0.59101472  0.92400055     1.59900
O1233       O  0.16036957  0.62565449  0.80574661    -0.80000
O1234       O  0.11813225  0.59873468  0.98015783    -0.78600
C1235       C  0.22852464  0.63044494  0.92184140     0.83900
C1236       C  0.12601094  0.73339882  0.87253615     0.83600
O1237       O  0.13011710  0.66172499  0.97889196    -0.77600
C1238       C  0.01985886  0.62550701  0.90194866     0.84400
O1239       O  0.20539363  0.65511254  0.93535477    -0.77700
C1240       C  0.12789620  0.62962617  0.78853720     0.84500
C1241       C  0.13071193  0.52507587  0.87312860     0.84800
O1242       O  0.15465053  0.54729171  0.85674393    -0.80100
O1243       O  0.35182759  0.72547966  0.70760265    -0.77600
C1244       C  0.37115368  0.63138066  0.61473113     0.83400
O1245       O  0.27509278  0.61445419  0.71850979    -0.78700
O1246       O  0.39108318  0.54163670  0.71195456    -0.80200
O1247       O  0.46182568  0.65333238  0.73707682    -0.80000
O1248       O  0.39257260  0.71694389  0.75609275    -0.78600
Zn1249     Zn  0.34650623  0.67140347  0.68500719     1.55700
O1250       O  0.45973408  0.60701257  0.69339357    -0.80000
Cd1251     Cd  0.40517950  0.66031191  0.75225384     1.59700
Cd1252     Cd  0.32875274  0.60662931  0.74764648     1.59600
O1253       O  0.39774784  0.64008668  0.80583395    -0.80000
O1254       O  0.36958649  0.63363687  0.71798488    -1.90500
Cd1255     Cd  0.40050904  0.59611233  0.68923457     1.59900
O1256       O  0.33606931  0.62079659  0.80567974    -0.80000
O1257       O  0.38306267  0.60204514  0.63309941    -0.78600
C1258       C  0.26704487  0.63648550  0.69015459     0.83900
C1259       C  0.37040109  0.73818041  0.73654609     0.83600
O1260       O  0.36340035  0.66315067  0.63091217    -0.77600
C1261       C  0.47845684  0.63049615  0.71413363     0.84400
O1262       O  0.29125639  0.66020638  0.67712951    -0.77700
C1263       C  0.36762222  0.62882402  0.82309911     0.84500
C1264       C  0.36703929  0.52828084  0.73631096     0.84800
O1265       O  0.34054925  0.54883518  0.75084730    -0.80100
O1266       O  0.36135921  0.59493283  0.88116294    -0.77600
C1267       C  0.36996346  0.51981208  0.98627908     0.83400
O1268       O  0.27574414  0.64635145  0.96955995    -0.78700
O1269       O  0.39781751  0.61693081  0.55578753    -0.80200
O1270       O  0.45953987  0.65138413  0.94281103    -0.80000
O1271       O  0.38267443  0.65547397  0.88263484    -0.78600
Zn1272     Zn  0.34444177  0.58725408  0.93553292     1.55700
O1273       O  0.46077931  0.60529179  0.48680262    -0.80000
Cd1274     Cd  0.40000752  0.66205670  0.93877978     1.59700
Cd1275     Cd  0.32921244  0.65166848  0.49858259     1.59600
O1276       O  0.39005941  0.71673624  0.96101223    -0.80000
O1277       O  0.36906467  0.62458773  0.96792760    -1.90500
Cd1278     Cd  0.40464294  0.59754315  0.50192685     1.59900
O1279       O  0.34143947  0.70902095  0.00213514    -0.80000
O1280       O  0.39298311  0.54074084  0.00501311    -0.78600
C1281       C  0.26634273  0.62543487  0.94089291     0.83900
C1282       C  0.37016623  0.62627082  0.86457551     0.83600
O1283       O  0.34996770  0.53297025  0.95836857    -0.77600
C1284       C  0.47796879  0.62789555  0.96399208     0.84400
O1285       O  0.28909828  0.60031168  0.92765009    -0.77700
C1286       C  0.36686549  0.72983636  0.98633626     0.84500
C1287       C  0.36804371  0.62853453  0.57338620     0.84800
O1288       O  0.33638492  0.63694360  0.55634114    -0.80100
O1289       O  0.63640529  0.83889783  0.60754882    -0.77600
C1290       C  0.62924374  0.76513939  0.50407951     0.83400
O1291       O  0.72019809  0.89446237  0.51986385    -0.78700
O1292       O  0.59905348  0.85952072  0.93383904    -0.80200
O1293       O  0.53800610  0.89810025  0.54615850    -0.80000
O1294       O  0.61469835  0.89941058  0.60726309    -0.78600
Zn1295     Zn  0.65338724  0.83307527  0.55335748     1.55700
O1296       O  0.53598479  0.85160881  0.00268286    -0.80000
Cd1297     Cd  0.59737010  0.90785063  0.55120891     1.59700
Cd1298     Cd  0.66663894  0.89820683  0.99032577     1.59600
O1299       O  0.60669615  0.96331419  0.53004072    -0.80000
O1300       O  0.62775768  0.87043774  0.52140498    -1.90500
Cd1301     Cd  0.59221062  0.84232965  0.98845546     1.59900
O1302       O  0.65265817  0.95537929  0.98613208    -0.80000
O1303       O  0.60447467  0.78549247  0.98675569    -0.78600
C1304       C  0.72983658  0.87354768  0.54857144     0.83900
C1305       C  0.62745300  0.86979656  0.62470524     0.83600
O1306       O  0.65028818  0.77876660  0.53080956    -0.77600
C1307       C  0.51922453  0.87516430  0.52483507     0.84400
O1308       O  0.70768927  0.84780209  0.56143892    -0.77700
C1309       C  0.62825460  0.97638122  0.50331199     0.84500
C1310       C  0.62842679  0.87159475  0.91596410     0.84800
O1311       O  0.65959432  0.88188253  0.93286804    -0.80100
O1312       O  0.64222327  0.96892345  0.78362582    -0.77600
C1313       C  0.62526734  0.87370539  0.87450190     0.83400
O1314       O  0.72066525  0.85662038  0.77186192    -0.78700
O1315       O  0.60641944  0.78252664  0.77675742    -0.80200
O1316       O  0.53735516  0.89755890  0.75149962    -0.80000
O1317       O  0.60755145  0.95876216  0.73100740    -0.78600
Zn1318     Zn  0.65063004  0.91409279  0.80443724     1.55700
O1319       O  0.53717177  0.85020399  0.79426437    -0.80000
Cd1320     Cd  0.59372475  0.90265689  0.73634367     1.59700
Cd1321     Cd  0.66836107  0.84938437  0.74180020     1.59600
O1322       O  0.59956176  0.88148574  0.68347095    -0.80000
O1323       O  0.62780933  0.87578540  0.77160274    -1.90500
Cd1324     Cd  0.59628755  0.83770717  0.79957091     1.59900
O1325       O  0.66162241  0.86372611  0.68359322    -0.80000
O1326       O  0.61302172  0.84435111  0.85635970    -0.78600
C1327       C  0.72947039  0.87790243  0.80043354     0.83900
C1328       C  0.62585443  0.98092150  0.75303877     0.83600
O1329       O  0.63355489  0.90517927  0.85805460    -0.77600
C1330       C  0.51950881  0.87485766  0.77368666     0.84400
O1331       O  0.70643740  0.90309590  0.81310611    -0.77700
C1332       C  0.62994091  0.87130108  0.66614266     0.84500
C1333       C  0.63221005  0.76997606  0.75367640     0.84800
O1334       O  0.65831017  0.79146568  0.73998090    -0.80100
O1335       O  0.85532235  0.96868940  0.58514988    -0.77600
C1336       C  0.87097172  0.87297654  0.99404704     0.83400
O1337       O  0.77618724  0.85690885  0.59640984    -0.78700
O1338       O  0.89058366  0.78222775  0.59229591    -0.80200
O1339       O  0.95936141  0.89670249  0.61503285    -0.80000
O1340       O  0.88935945  0.95771343  0.63809163    -0.78600
Zn1341     Zn  0.84637827  0.91403955  0.56406509     1.55700
O1342       O  0.95863847  0.85016528  0.57153939    -0.80000
Cd1343     Cd  0.90327421  0.90149410  0.63217820     1.59700
Cd1344     Cd  0.82827077  0.84910292  0.62670644     1.59600
O1345       O  0.89743445  0.87950193  0.68502618    -0.80000
O1346       O  0.86876293  0.87543361  0.59695582    -1.90500
Cd1347     Cd  0.89972572  0.83718749  0.56872787     1.59900
O1348       O  0.83481476  0.86382440  0.68473523    -0.80000
O1349       O  0.88210541  0.84321822  0.51232171    -0.78600
C1350       C  0.76737006  0.87851604  0.56798258     0.83900
C1351       C  0.87143030  0.98027892  0.61599212     0.83600
O1352       O  0.86366566  0.90475576  0.51038293    -0.77600
C1353       C  0.97666558  0.87481972  0.59157078     0.84400
O1354       O  0.79040760  0.90374546  0.55541577    -0.77700
C1355       C  0.86660598  0.87046731  0.70229840     0.84500
C1356       C  0.86481543  0.76963808  0.61535571     0.84800
O1357       O  0.83846193  0.79106235  0.62878546    -0.80100
O1358       O  0.86130304  0.83817864  0.76125959    -0.77600
C1359       C  0.86939539  0.76493768  0.86517758     0.83400
O1360       O  0.77637462  0.89346288  0.84871922    -0.78700
O1361       O  0.89813261  0.86018418  0.93473863    -0.80200
O1362       O  0.95700244  0.89931605  0.81973968    -0.80000
O1363       O  0.87951199  0.89971795  0.76099982    -0.78600
Zn1364     Zn  0.84381110  0.83252909  0.81549491     1.55700
O1365       O  0.96141028  0.85359800  0.86406295    -0.80000
Cd1366     Cd  0.89752285  0.90799375  0.81671863     1.59700
Cd1367     Cd  0.82966975  0.89717896  0.87851612     1.59600
O1368       O  0.88804751  0.96289597  0.83850919    -0.80000
O1369       O  0.86884919  0.87001934  0.84729754    -1.90500
Cd1370     Cd  0.90553954  0.84281709  0.88001885     1.59900
O1371       O  0.84329758  0.95433649  0.88351183    -0.80000
O1372       O  0.89431808  0.78545116  0.88204077    -0.78600
C1373       C  0.76696100  0.87270318  0.81992474     0.83900
C1374       C  0.86861611  0.86938249  0.74378375     0.83600
O1375       O  0.84780209  0.77848546  0.83873415    -0.77600
C1376       C  0.97695333  0.87703263  0.84078241     0.84400
O1377       O  0.78928229  0.84703401  0.80708801    -0.77700
C1378       C  0.86719424  0.97555649  0.86593098     0.84500
C1379       C  0.86813875  0.87094956  0.95258442     0.84800
O1380       O  0.83658187  0.88004457  0.93565433    -0.80100
O1381       O  0.13559287  0.91605180  0.50738278    -0.77600
C1382       C  0.12743993  0.98969169  0.61097440     0.83400
O1383       O  0.21980029  0.86057912  0.59463646    -0.78700
O1384       O  0.09849611  0.89499678  0.68112666    -0.80200
O1385       O  0.03831722  0.85504166  0.56854535    -0.80000
O1386       O  0.11506547  0.85519758  0.50755101    -0.78600
Zn1387     Zn  0.15283283  0.92184479  0.56153075     1.55700
O1388       O  0.03498268  0.90135503  0.61216328    -0.80000
Cd1389     Cd  0.09782084  0.84658912  0.56357091     1.59700
Cd1390     Cd  0.16643460  0.85695967  0.62455064     1.59600
O1391       O  0.10776828  0.79142881  0.58480791    -0.80000
O1392       O  0.12733350  0.88440104  0.59348984    -1.90500
Cd1393     Cd  0.09108611  0.91205815  0.62640121     1.59900
O1394       O  0.15288588  0.79977839  0.62929770    -0.80000
O1395       O  0.10244598  0.96927831  0.62796923    -0.78600
C1396       C  0.22949132  0.88129514  0.56579380     0.83900
C1397       C  0.12717041  0.88507172  0.99015492     0.83600
O1398       O  0.14899008  0.97606568  0.58449902    -0.77600
C1399       C  0.01888716  0.87743862  0.58996413     0.84400
O1400       O  0.20742998  0.90719148  0.55294881    -0.77700
C1401       C  0.12892654  0.77861195  0.61190290     0.84500
C1402       C  0.12812229  0.88335615  0.69890525     0.84800
O1403       O  0.15945186  0.87352097  0.68188868    -0.80100
O1404       O  0.14271001  0.78590675  0.83182608    -0.77600
C1405       C  0.12510291  0.88122140  0.74039663     0.83400
O1406       O  0.22032812  0.89879818  0.84299334    -0.78700
O1407       O  0.10514147  0.97209578  0.83825514    -0.80200
O1408       O  0.03716420  0.85686540  0.86306312    -0.80000
O1409       O  0.10784715  0.79625648  0.88443076    -0.78600
Zn1410     Zn  0.15066770  0.84076569  0.81057172     1.55700
O1411       O  0.03678269  0.90400467  0.82007241    -0.80000
Cd1412     Cd  0.09349471  0.85228626  0.87870377     1.59700
Cd1413     Cd  0.16779254  0.90552089  0.87308327     1.59600
O1414       O  0.09902322  0.87401699  0.93144811    -0.80000
O1415       O  0.12751435  0.87900523  0.84329459    -1.90500
Cd1416     Cd  0.09577089  0.91693249  0.81530313     1.59900
O1417       O  0.16130113  0.89081486  0.93116687    -0.80000
O1418       O  0.11275736  0.91055985  0.75857398    -0.78600
C1419       C  0.22931680  0.87736092  0.81455174     0.83900
C1420       C  0.12638983  0.77402197  0.86253876     0.83600
O1421       O  0.13361098  0.84975841  0.75684143    -0.77600
C1422       C  0.01924178  0.87922249  0.84056268     0.84400
O1423       O  0.20641230  0.85207298  0.80203160    -0.77700
C1424       C  0.12953547  0.88371516  0.94870653     0.84500
C1425       C  0.13053997  0.98463341  0.86163200     0.84800
O1426       O  0.15672102  0.96323671  0.87536900    -0.80100
O1427       O  0.35057344  0.78290305  0.52651111    -0.77600
C1428       C  0.36993772  0.87694794  0.62021899     0.83400
O1429       O  0.27615607  0.89648682  0.51738095    -0.78700
O1430       O  0.39023669  0.96634638  0.52289289    -0.80200
O1431       O  0.46038271  0.85498888  0.99917460    -0.80000
O1432       O  0.39216511  0.79150175  0.97853311    -0.78600
Zn1433     Zn  0.34481215  0.83702766  0.54981877     1.55700
O1434       O  0.45814806  0.90019346  0.54393501    -0.80000
Cd1435     Cd  0.40434368  0.84830144  0.98250343     1.59700
Cd1436     Cd  0.32872702  0.90160615  0.98688904     1.59600
O1437       O  0.39730872  0.86928207  0.92901733    -0.80000
O1438       O  0.36868429  0.87447272  0.51699276    -1.90500
Cd1439     Cd  0.39909152  0.91201036  0.54601804     1.59900
O1440       O  0.33499260  0.88655017  0.92921987    -0.80000
O1441       O  0.38091332  0.90659101  0.60185298    -0.78600
C1442       C  0.26692487  0.87551023  0.54616536     0.83900
C1443       C  0.36984605  0.77017587  0.49784892     0.83600
O1444       O  0.36268017  0.84509474  0.60392228    -0.77600
C1445       C  0.47696714  0.87666859  0.52322939     0.84400
O1446       O  0.28944196  0.84986539  0.55884828    -0.77700
C1447       C  0.36681948  0.87958053  0.91176828     0.84500
C1448       C  0.36685653  0.97952715  0.49784844     0.84800
O1449       O  0.34101655  0.95889659  0.98265015    -0.80100
O1450       O  0.36205924  0.91359569  0.85358041    -0.77600
C1451       C  0.37032824  0.98794072  0.74811591     0.83400
O1452       O  0.27609480  0.86121041  0.76634066    -0.78700
O1453       O  0.39764264  0.89023293  0.67905257    -0.80200
O1454       O  0.45739229  0.85423923  0.79415972    -0.80000
O1455       O  0.37998550  0.85194287  0.85242012    -0.78600
Zn1456     Zn  0.34461137  0.92087680  0.79923723     1.57300
O1457       O  0.46150527  0.89942990  0.74931270    -0.80000
Cd1458     Cd  0.39807810  0.84532455  0.79677109     1.59700
Cd1459     Cd  0.32912047  0.85653743  0.73640290     1.59600
O1460       O  0.38873062  0.79103190  0.77454629    -0.80000
O1461       O  0.36893973  0.88338872  0.76687562    -1.90500
Cd1462     Cd  0.40546984  0.90957548  0.73315947     1.59900
O1463       O  0.34188149  0.79933444  0.73177683    -0.80000
O1464       O  0.39420698  0.96696725  0.73018793    -0.78600
C1465       C  0.26689947  0.88221768  0.79504314     0.83900
C1466       C  0.36916570  0.88187849  0.87033232     0.83600
O1467       O  0.34970199  0.97485366  0.77564094    -0.77600
C1468       C  0.47720145  0.87649083  0.77300205     0.84400
O1469       O  0.28954089  0.90760268  0.80775351    -0.77700
C1470       C  0.36670435  0.77831326  0.74824161     0.84500
C1471       C  0.36738150  0.87961304  0.66165146     0.84800
O1472       O  0.33561621  0.87209861  0.67894527    -0.80100
loop_ 
_geom_bond_atom_site_label_1 
_geom_bond_atom_site_label_2 
_geom_bond_distance 
_geom_bond_site_symmetry_2 
_ccdc_geom_bond_type 
O1           C17   1.280       .  A
O1           Zn7   2.054       .  S
C2           O18   1.276       .  A
C2           O15   1.281       .  A
C2           C44   1.456       .  S
O3           C16   1.285       .  A
O3          Cd10   2.136       .  S
O4           C22   1.280       .  A
O4          Cd13   2.107       .  S
O5           C19   1.272       .  A
O5           Cd9   2.051       .  S
O6           C17   1.269       .  A
O6           Cd9   2.049       .  S
Zn7          O18   1.991       .  S
Zn7          O20   1.985       .  S
Zn7          O12   1.913       .  S
O8           C19   1.278       .  A
O8          Cd13   2.097       .  S
Cd9          O11   2.017       .  S
Cd9          O12   1.951       .  S
Cd10         O14   2.117       .  S
Cd10         O23   2.078       .  S
Cd10         O12   1.977       .  S
O11          C21   1.267       .  A
O12         Cd13   1.971       .  S
Cd13         O15   2.094       .  S
O14          C21   1.286       .  A
C16          O20   1.267       .  A
C16          C62   1.474       .  S
C17         C960   1.462   1_545  S
C19         C157   1.461       .  S
C21          C25   1.453       .  S
C22          O23   1.275       .  A
C22         C229   1.473       .  S
O24          C40   1.283       .  A
O24         Zn30   2.070       .  S
C25          O41   1.279       .  A
C25          O38   1.277       .  A
O26          C39   1.286       .  A
O26        Cd401   2.135       .  S
O27          C45   1.278       .  A
O27         Cd36   2.073       .  S
O28         C410   1.273       .  A
O28         Cd32   2.042   1_556  S
O29          C40   1.272       .  A
O29        Cd400   2.057       .  S
Zn30         O41   2.011       .  S
Zn30         O43   1.983       .  S
Zn30         O35   1.913       .  S
O31          C42   1.277       .  A
O31         Cd36   2.098       .  S
Cd32         O34   2.029       .  S
Cd32        O397   2.057       .  S
Cd32        O403   1.952   1_554  S
Cd33         O37   2.111       .  S
Cd33        O394   2.135   1_554  S
Cd33        O414   2.073       .  S
Cd33        O403   1.985   1_554  S
O34          C44   1.269       .  A
O35         Cd36   1.966       .  S
O35        Cd400   1.952       .  S
O35        Cd401   1.985       .  S
Cd36         O38   2.068       .  S
O37          C44   1.286       .  A
C39          O43   1.267       .  A
C39          C85   1.473       .  S
C40        C1309   1.478   1_545  S
C42         O396   1.273       .  A
C42         C180   1.470       .  S
C45          O46   1.273       .  A
C45         C554   1.471       .  S
O46        Cd401   2.073       .  S
O47          C63   1.280       .  A
O47         Zn53   2.061       .  S
C48          O64   1.276       .  A
C48          O61   1.282       .  A
C48          C90   1.456       .  S
O49          C62   1.285       .  A
O49         Cd56   2.135       .  S
O50          C68   1.280       .  A
O50         Cd59   2.107       .  S
O51          C65   1.271       .  A
O51         Cd55   2.045       .  S
O52          C63   1.269       .  A
O52         Cd55   2.050       .  S
Zn53         O64   1.990       .  S
Zn53         O66   1.988       .  S
Zn53         O58   1.914       .  S
O54          C65   1.278       .  A
O54         Cd59   2.100       .  S
Cd55         O57   2.015       .  S
Cd55         O58   1.948       .  S
Cd56         O60   2.122       .  S
Cd56         O69   2.077       .  S
Cd56         O58   1.976       .  S
O57          C67   1.267       .  A
O58         Cd59   1.972       .  S
Cd59         O61   2.095       .  S
O60          C67   1.286       .  A
C62          O66   1.268       .  A
C63         C983   1.465   1_545  S
C65         C111   1.460   1_655  S
C67         C439   1.455       .  S
C68          O69   1.275       .  A
C68         C252   1.473       .  S
O70          C86   1.283       .  A
O70         Zn76   2.071       .  S
C71          O87   1.279       .  A
C71          O84   1.278       .  A
C71         C435   1.455       .  S
O72          C85   1.286       .  A
O72         Cd79   2.138       .  S
O73          C91   1.278       .  A
O73         Cd82   2.081       .  S
O74          C88   1.270       .  A
O74         Cd78   2.043       .  S
O75          C86   1.271       .  A
O75         Cd78   2.048       .  S
Zn76         O87   2.010       .  S
Zn76         O89   1.978       .  S
Zn76         O81   1.918       .  S
O77          C88   1.277       .  A
O77         Cd82   2.097       .  S
Cd78         O80   2.027       .  S
Cd78         O81   1.956       .  S
Cd79         O83   2.112       .  S
Cd79         O92   2.075       .  S
Cd79         O81   1.986       .  S
O80          C90   1.268       .  A
O81         Cd82   1.966       .  S
Cd82         O84   2.072       .  S
O83          C90   1.286       .  A
C85          O89   1.266       .  A
C86        C1010   1.476   1_545  S
C88         C134   1.459   1_655  S
C91          O92   1.273       .  A
C91         C255   1.474       .  S
O93         C109   1.283       .  A
O93         Zn99   2.070       .  S
C94         O110   1.279       .  A
C94         O107   1.277       .  A
C94         C136   1.454       .  S
O95         C108   1.286       .  A
O95        Cd102   2.137       .  S
O96         C114   1.279       .  A
O96        Cd105   2.082       .  S
O97         C111   1.272       .  A
O97        Cd101   2.050       .  S
O98         C109   1.271       .  A
O98        Cd101   2.051       .  S
Zn99        O110   2.010       .  S
Zn99        O112   1.985       .  S
Zn99        O104   1.914       .  S
O100        C111   1.277       .  A
O100       Cd105   2.094       .  S
Cd101       O103   2.032       .  S
Cd101       O104   1.955       .  S
Cd102       O106   2.110       .  S
Cd102       O115   2.075       .  S
Cd102       O104   1.984       .  S
O103        C113   1.270       .  A
O104       Cd105   1.964       .  S
Cd105       O107   2.070       .  S
O106        C113   1.286       .  A
C108        O112   1.267       .  A
C108        C154   1.474       .  S
C109        C297   1.476       .  S
C113        C485   1.456   1_554  S
C114        O115   1.273       .  A
C114       C1014   1.474   1_545  S
O116        C132   1.280       .  A
O116       Zn122   2.061       .  S
C117        O133   1.277       .  A
C117        O130   1.281       .  A
C117        C481   1.456       .  S
O118        C131   1.286       .  A
O118       Cd125   2.125       .  S
O119        C137   1.281       .  A
O119       Cd128   2.110       .  S
O120        C134   1.272       .  A
O120       Cd124   2.051       .  S
O121        C132   1.269       .  A
O121       Cd124   2.048       .  S
Zn122       O133   1.996       .  S
Zn122       O135   1.995       .  S
Zn122       O127   1.919       .  S
O123        C134   1.277       .  A
O123       Cd128   2.093       .  S
Cd124       O126   2.022       .  S
Cd124       O127   1.950       .  S
Cd125       O129   2.111       .  S
Cd125       O138   2.071       .  S
Cd125       O127   1.969       .  S
O126        C136   1.268       .  A
O127       Cd128   1.973       .  S
Cd128       O130   2.092       .  S
O129        C136   1.285       .  A
C131        O135   1.269       .  A
C131        C177   1.482       .  S
C132        C316   1.464       .  S
C137        O138   1.273       .  A
C137       C1057   1.472   1_545  S
O139        C155   1.281       .  A
O139       Zn145   2.061       .  S
C140        O156   1.277       .  A
C140        O153   1.279       .  A
C140        C183   1.453       .  S
O141        C154   1.286       .  A
O141       Cd148   2.140       .  S
O142        C160   1.279       .  A
O142       Cd151   2.090       .  S
O143        C157   1.271       .  A
O143       Cd147   2.049       .  S
O144        C155   1.268       .  A
O144       Cd147   2.034       .  S
Zn145       O156   2.000       .  S
Zn145       O158   1.976       .  S
Zn145       O150   1.927       .  S
O146        C157   1.276       .  A
O146       Cd151   2.095       .  S
Cd147       O149   2.017       .  S
Cd147       O150   1.960       .  S
Cd148       O152   2.105       .  S
Cd148       O161   2.066       .  S
Cd148       O150   1.993       .  S
O149        C159   1.269       .  A
O150       Cd151   1.970       .  S
Cd151       O153   2.064       .  S
O152        C159   1.285       .  A
C154        O158   1.266       .  A
C155        C366   1.469       .  S
C159        C178   1.455       .  S
C160        O161   1.272       .  A
C160       C1083   1.475   1_545  S
O162        C178   1.277       .  A
O162       Zn168   2.006       .  S
C163        O179   1.282       .  A
C163        O176   1.268       .  A
C163       C1448   1.470   1_545  S
O164        C177   1.285       .  A
O164       Cd539   2.124       .  S
O165        C183   1.268       .  A
O165       Cd174   2.016       .  S
O166        C180   1.277       .  A
O166       Cd170   2.103       .  S
O167        C178   1.279       .  A
O167       Cd170   2.067       .  S
Zn168       O179   2.069       .  S
Zn168       O181   1.992       .  S
Zn168       O173   1.932       .  S
O169        C548   1.271       .  A
O169       Cd174   2.035   1_556  S
Cd170       O172   2.095       .  S
Cd170       O173   1.976       .  S
Cd171       O184   2.098   1_556  S
Cd171       O532   2.124       .  S
Cd171       O543   2.057   1_556  S
Cd171       O541   1.988       .  S
O172        C182   1.280       .  A
O173       Cd539   1.988       .  S
O173       Cd542   1.957       .  S
Cd174       O544   2.032       .  S
Cd174       O541   1.957   1_554  S
O175        C182   1.270       .  A
O175       Cd539   2.057       .  S
O176       Cd542   2.032       .  S
C177        O181   1.268       .  A
C180        O537   1.271       .  A
C182        C707   1.473       .  S
C183        O184   1.284       .  A
O185        C201   1.275       .  A
O185       Zn191   1.993       .  S
C186        O202   1.280       .  A
C186        O567   1.269   1_554  A
C186        C413   1.471   1_554  S
O187        C200   1.285       .  A
O187       Cd562   2.130   1_554  S
O188        C206   1.267       .  A
O188       Cd197   2.014       .  S
O189        C203   1.277       .  A
O189       Cd193   2.095       .  S
O190        C201   1.280       .  A
O190       Cd193   2.071       .  S
Zn191       O202   2.062       .  S
Zn191       O204   1.974       .  S
Zn191       O196   1.935       .  S
O192        C571   1.271       .  A
O192       Cd197   2.037       .  S
Cd193       O195   2.102       .  S
Cd193       O196   1.977       .  S
Cd194       O198   2.064       .  S
Cd194       O207   2.104       .  S
Cd194       O555   2.130       .  S
Cd194       O564   1.985       .  S
O195        C205   1.280       .  A
O196       Cd562   1.985   1_554  S
O196       Cd565   1.956   1_554  S
Cd197       O199   2.035       .  S
Cd197       O564   1.956       .  S
O198        C573   1.271       .  A
O199        C554   1.269       .  A
C200        O204   1.267       .  A
C200        C246   1.480       .  S
C201        C228   1.452       .  S
C203        O560   1.271       .  A
C203        C341   1.468       .  S
C205        O566   1.271   1_554  A
C205       C1144   1.478   1_554  S
C206        O207   1.285       .  A
C206        C209   1.455       .  S
O208        C224   1.281       .  A
O208       Zn214   2.072       .  S
C209        O225   1.275       .  A
C209        O222   1.282       .  A
O210        C223   1.285       .  A
O210       Cd217   2.114       .  S
O211        C229   1.281       .  A
O211       Cd220   2.120       .  S
O212        C226   1.270       .  A
O212       Cd216   2.033       .  S
O213        C224   1.266       .  A
O213       Cd216   2.031       .  S
Zn214       O225   1.989       .  S
Zn214       O227   1.996       .  S
Zn214       O219   1.937       .  S
O215        C226   1.279       .  A
O215       Cd220   2.104       .  S
Cd216       O218   2.002       .  S
Cd216       O219   1.949       .  S
Cd217       O221   2.108       .  S
Cd217       O230   2.059       .  S
Cd217       O219   1.978       .  S
O218        C228   1.266       .  A
O219       Cd220   1.981       .  S
Cd220       O222   2.083       .  S
O221        C228   1.285       .  A
C223        O227   1.269       .  A
C223        C269   1.480       .  S
C224        C753   1.462       .  S
C226        C364   1.469       .  S
C229        O230   1.270       .  A
O231        C247   1.282       .  A
O231       Zn237   2.075       .  S
C232        O616   1.276       .  A
C232        O613   1.280       .  A
C232        C275   1.455       .  S
O233        C246   1.285       .  A
O233       Cd240   2.113       .  S
O234        C252   1.281       .  A
O234       Cd243   2.116       .  S
O235        C249   1.272       .  A
O235       Cd239   2.041       .  S
O236        C247   1.267       .  A
O236       Cd239   2.036       .  S
Zn237       O248   1.996       .  S
Zn237       O250   1.999       .  S
Zn237       O242   1.935       .  S
O238        C249   1.277       .  A
O238       Cd243   2.096       .  S
Cd239       O241   2.010       .  S
Cd239       O242   1.948       .  S
Cd240       O244   2.106       .  S
Cd240       O253   2.063       .  S
Cd240       O242   1.975       .  S
O241        C251   1.267       .  A
O242       Cd243   1.979       .  S
Cd243       O245   2.075       .  S
O244        C251   1.285       .  A
O245        C600   1.280   1_554  A
C246        O250   1.269       .  A
C247        C799   1.465       .  S
O248        C600   1.276   1_554  A
C249        C295   1.468   1_655  S
C251        C270   1.452       .  S
C252        O253   1.271       .  A
O254        C270   1.276       .  A
O254       Zn260   1.999       .  S
C255        O271   1.280       .  A
C255        O268   1.271       .  A
O256        C269   1.285       .  A
O256       Cd263   2.127       .  S
O257        C275   1.269       .  A
O257       Cd266   2.024       .  S
O258        C272   1.275       .  A
O258       Cd262   2.087       .  S
O259        C270   1.279       .  A
O259       Cd262   2.067       .  S
Zn260       O271   2.062       .  S
Zn260       O273   1.980       .  S
Zn260       O265   1.930       .  S
O261        C272   1.274       .  A
O261       Cd266   2.051       .  S
Cd262       O264   2.094       .  S
Cd262       O265   1.973       .  S
Cd263       O267   2.064       .  S
Cd263       O276   2.098       .  S
Cd263       O265   1.984       .  S
O264        C274   1.279       .  A
O265       Cd266   1.957       .  S
Cd266       O268   2.047       .  S
O267        C274   1.271       .  A
C269        O273   1.267       .  A
C272        C318   1.469   1_655  S
C274        C822   1.476       .  S
C275        O276   1.284       .  A
O277        C661   1.276   1_554  A
O277       Zn283   1.997       .  S
C278        O294   1.281       .  A
C278        O291   1.270       .  A
C278        C850   1.474       .  S
O279        C292   1.285       .  A
O279       Cd286   2.128       .  S
O280        C298   1.268       .  A
O280       Cd289   2.020       .  S
O281        C295   1.276       .  A
O281       Cd285   2.091       .  S
O282        C661   1.280   1_554  A
O282       Cd285   2.068       .  S
Zn283       O294   2.066       .  S
Zn283       O296   1.983       .  S
Zn283       O288   1.935       .  S
O284        C295   1.273       .  A
O284       Cd289   2.045       .  S
Cd285       O287   2.096       .  S
Cd285       O288   1.976       .  S
Cd286       O290   2.063       .  S
Cd286       O299   2.101       .  S
Cd286       O288   1.984       .  S
O287        C297   1.279       .  A
O288       Cd289   1.959       .  S
Cd289       O291   2.043       .  S
O290        C297   1.271       .  A
C292        O296   1.267       .  A
C292        C338   1.481       .  S
C293        O645   1.276       .  A
C293        O650   1.280       .  A
C293        C320   1.452       .  S
C298        O299   1.285       .  A
C298        C301   1.456       .  S
O300        C316   1.282       .  A
O300       Zn306   2.077       .  S
C301        O317   1.276       .  A
C301        O314   1.281       .  A
O302        C315   1.284       .  A
O302       Cd309   2.115       .  S
O303        C321   1.281       .  A
O303       Cd312   2.118       .  S
O304        C318   1.271       .  A
O304       Cd308   2.036       .  S
O305        C316   1.266       .  A
O305       Cd308   2.032       .  S
Zn306       O317   1.994       .  S
Zn306       O319   1.996       .  S
Zn306       O311   1.935       .  S
O307        C318   1.278       .  A
O307       Cd312   2.102       .  S
Cd308       O310   2.005       .  S
Cd308       O311   1.948       .  S
Cd309       O313   2.105       .  S
Cd309       O322   2.058       .  S
Cd309       O311   1.977       .  S
O310        C320   1.266       .  A
O311       Cd312   1.982       .  S
Cd312       O314   2.080       .  S
O313        C320   1.284       .  A
C315        O319   1.269       .  A
C315        C361   1.480       .  S
C321        O322   1.270       .  A
C321        C873   1.472       .  S
O323        C339   1.283   1_554  A
O323       Zn329   2.073       .  S
C324        O340   1.279       .  A
C324        O337   1.277       .  A
C324        C367   1.454       .  S
O325        C338   1.285       .  A
O325       Cd700   2.118   1_554  S
O326        C344   1.279   1_554  A
O326       Cd335   2.088       .  S
O327        C709   1.272       .  A
O327       Cd331   2.044       .  S
O328        C707   1.269       .  A
O328       Cd331   2.038       .  S
Zn329       O340   2.012       .  S
Zn329       O342   1.996       .  S
Zn329       O334   1.928       .  S
O330        C341   1.275       .  A
O330       Cd335   2.090       .  S
Cd331       O333   2.022       .  S
Cd331       O702   1.954       .  S
Cd332       O336   2.095       .  S
Cd332       O345   2.056       .  S
Cd332       O693   2.118       .  S
Cd332       O702   1.982       .  S
O333        C343   1.270       .  A
O334       Cd335   1.970       .  S
O334       Cd699   1.954   1_554  S
O334       Cd700   1.982   1_554  S
Cd335       O337   2.059       .  S
O336        C343   1.284       .  A
C338        O342   1.269       .  A
C339        O696   1.269       .  A
C339        C550   1.473       .  S
C341        O695   1.272   1_554  A
C343        C362   1.453       .  S
C344        O713   1.270       .  A
C344       C1267   1.470       .  S
O345        C712   1.270       .  A
O346        C362   1.278       .  A
O346       Zn352   2.010       .  S
C347        O363   1.282       .  A
C347        O360   1.271       .  A
C347        C896   1.475       .  S
O348        C361   1.284       .  A
O348       Cd355   2.121       .  S
O349        C367   1.270       .  A
O349       Cd358   2.029       .  S
O350        C364   1.274       .  A
O350       Cd354   2.083       .  S
O351        C362   1.277       .  A
O351       Cd354   2.056       .  S
Zn352       O363   2.068       .  S
Zn352       O365   1.988       .  S
Zn352       O357   1.927       .  S
O353        C364   1.275       .  A
O353       Cd358   2.055       .  S
Cd354       O356   2.081       .  S
Cd354       O357   1.971       .  S
Cd355       O359   2.057       .  S
Cd355       O368   2.092       .  S
Cd355       O357   1.984       .  S
O356        C366   1.278       .  A
O357       Cd358   1.957       .  S
Cd358       O360   2.049       .  S
O359        C366   1.270       .  A
C361        O365   1.268       .  A
C367        O368   1.283       .  A
O369        C385   1.280       .  A
O369       Zn375   2.054       .  S
C370        O386   1.276       .  A
C370        O383   1.282       .  A
C370        C412   1.456       .  S
O371        C384   1.285       .  A
O371       Cd378   2.136       .  S
O372        C390   1.280       .  A
O372       Cd381   2.107       .  S
O373        C387   1.272       .  A
O373       Cd377   2.051       .  S
O374        C385   1.269       .  A
O374       Cd377   2.049       .  S
Zn375       O386   1.991       .  S
Zn375       O388   1.985       .  S
Zn375       O380   1.913       .  S
O376        C387   1.278       .  A
O376       Cd381   2.097       .  S
Cd377       O379   2.017       .  S
Cd377       O380   1.951       .  S
Cd378       O382   2.117       .  S
Cd378       O391   2.078       .  S
Cd378       O380   1.977       .  S
O379        C389   1.267       .  A
O380       Cd381   1.971       .  S
Cd381       O383   2.094       .  S
O382        C389   1.286       .  A
C384        O388   1.267       .  A
C384        C430   1.474       .  S
C385       C1328   1.462   1_545  S
C387        C525   1.461       .  S
C389        C393   1.454       .  S
C390        O391   1.275       .  A
C390        C597   1.473       .  S
O392        C408   1.283       .  A
O392       Zn398   2.070       .  S
C393        O409   1.279       .  A
C393        O406   1.277       .  A
O394        C407   1.286       .  A
O395        C413   1.278       .  A
O395       Cd404   2.073       .  S
O396       Cd400   2.042       .  S
O397        C408   1.272   1_554  A
Zn398       O409   2.011       .  S
Zn398       O411   1.983       .  S
Zn398       O403   1.913       .  S
O399        C410   1.277       .  A
O399       Cd404   2.098       .  S
Cd400       O402   2.029       .  S
Cd401       O405   2.111       .  S
O402        C412   1.269       .  A
O403       Cd404   1.966       .  S
Cd404       O406   2.068       .  S
O405        C412   1.286       .  A
C407        O411   1.267       .  A
C407        C453   1.473       .  S
C408        C941   1.478   1_546  S
C410        C548   1.470       .  S
C413        O414   1.273   1_556  A
O415        C431   1.280       .  A
O415       Zn421   2.061       .  S
C416        O432   1.276       .  A
C416        O429   1.282       .  A
C416        C458   1.456       .  S
O417        C430   1.285       .  A
O417       Cd424   2.135       .  S
O418        C436   1.280       .  A
O418       Cd427   2.107       .  S
O419        C433   1.271       .  A
O419       Cd423   2.045       .  S
O420        C431   1.269       .  A
O420       Cd423   2.050       .  S
Zn421       O432   1.990       .  S
Zn421       O434   1.988       .  S
Zn421       O426   1.914       .  S
O422        C433   1.278       .  A
O422       Cd427   2.100       .  S
Cd423       O425   2.015       .  S
Cd423       O426   1.948       .  S
Cd424       O428   2.122       .  S
Cd424       O437   2.077       .  S
Cd424       O426   1.976       .  S
O425        C435   1.267       .  A
O426       Cd427   1.972       .  S
Cd427       O429   2.095       .  S
O428        C435   1.286       .  A
C430        O434   1.268       .  A
C431       C1351   1.465   1_545  S
C433        C479   1.460   1_655  S
C436        O437   1.275       .  A
C436        C620   1.473       .  S
O438        C454   1.283       .  A
O438       Zn444   2.071       .  S
C439        O455   1.279   1_554  A
C439        O452   1.278   1_554  A
O440        C453   1.286       .  A
O440       Cd447   2.138       .  S
O441        C459   1.278       .  A
O441       Cd450   2.081       .  S
O442        C456   1.270       .  A
O442       Cd446   2.043       .  S
O443        C454   1.271       .  A
O443       Cd446   2.048       .  S
Zn444       O455   2.010       .  S
Zn444       O457   1.978       .  S
Zn444       O449   1.918       .  S
O445        C456   1.277       .  A
O445       Cd450   2.097       .  S
Cd446       O448   2.027       .  S
Cd446       O449   1.956       .  S
Cd447       O451   2.112       .  S
Cd447       O460   2.075       .  S
Cd447       O449   1.986       .  S
O448        C458   1.268       .  A
O449       Cd450   1.966       .  S
Cd450       O452   2.072       .  S
O451        C458   1.286       .  A
C453        O457   1.266       .  A
C454       C1378   1.476   1_545  S
C456        C502   1.459   1_655  S
C459        O460   1.273       .  A
C459        C623   1.474       .  S
O461        C477   1.283       .  A
O461       Zn467   2.070       .  S
C462        O478   1.279       .  A
C462        O475   1.277       .  A
C462        C504   1.454       .  S
O463        C476   1.286       .  A
O463       Cd470   2.137       .  S
O464        C482   1.279       .  A
O464       Cd473   2.082       .  S
O465        C479   1.272       .  A
O465       Cd469   2.050       .  S
O466        C477   1.271       .  A
O466       Cd469   2.051       .  S
Zn467       O478   2.010       .  S
Zn467       O480   1.985       .  S
Zn467       O472   1.914       .  S
O468        C479   1.277       .  A
O468       Cd473   2.094       .  S
Cd469       O471   2.032       .  S
Cd469       O472   1.955       .  S
Cd470       O474   2.110       .  S
Cd470       O483   2.075       .  S
Cd470       O472   1.984       .  S
O471        C481   1.270       .  A
O472       Cd473   1.964       .  S
Cd473       O475   2.070       .  S
O474        C481   1.286       .  A
C476        O480   1.267       .  A
C476        C522   1.474       .  S
C477        C665   1.476       .  S
C482        O483   1.273       .  A
C482       C1382   1.474   1_545  S
O484        C500   1.280       .  A
O484       Zn490   2.061       .  S
C485        O501   1.277       .  A
C485        O498   1.281       .  A
O486        C499   1.286       .  A
O486       Cd493   2.125       .  S
O487        C505   1.281       .  A
O487       Cd496   2.110       .  S
O488        C502   1.272       .  A
O488       Cd492   2.051       .  S
O489        C500   1.269       .  A
O489       Cd492   2.048       .  S
Zn490       O501   1.996       .  S
Zn490       O503   1.995       .  S
Zn490       O495   1.919       .  S
O491        C502   1.277       .  A
O491       Cd496   2.093       .  S
Cd492       O494   2.022       .  S
Cd492       O495   1.950       .  S
Cd493       O497   2.111       .  S
Cd493       O506   2.071       .  S
Cd493       O495   1.969       .  S
O494        C504   1.268       .  A
O495       Cd496   1.973       .  S
Cd496       O498   2.092       .  S
O497        C504   1.285       .  A
C499        O503   1.269       .  A
C499        C545   1.482       .  S
C500        C684   1.464       .  S
C505        O506   1.273       .  A
C505       C1425   1.472   1_545  S
O507        C523   1.281       .  A
O507       Zn513   2.061       .  S
C508        O524   1.277       .  A
C508        O521   1.279       .  A
C508        C551   1.453       .  S
O509        C522   1.286       .  A
O509       Cd516   2.140       .  S
O510        C528   1.279       .  A
O510       Cd519   2.090       .  S
O511        C525   1.271       .  A
O511       Cd515   2.049       .  S
O512        C523   1.268       .  A
O512       Cd515   2.034       .  S
Zn513       O524   2.000       .  S
Zn513       O526   1.976       .  S
Zn513       O518   1.927       .  S
O514        C525   1.276       .  A
O514       Cd519   2.095       .  S
Cd515       O517   2.017       .  S
Cd515       O518   1.960       .  S
Cd516       O520   2.105       .  S
Cd516       O529   2.066       .  S
Cd516       O518   1.993       .  S
O517        C527   1.269       .  A
O518       Cd519   1.970       .  S
Cd519       O521   2.064       .  S
O520        C527   1.285       .  A
C522        O526   1.266       .  A
C523        C734   1.469       .  S
C527        C546   1.455       .  S
C528        O529   1.272       .  A
C528       C1451   1.475   1_545  S
O530        C546   1.277       .  A
O530       Zn536   2.006       .  S
C531        O547   1.282       .  A
C531        O544   1.268   1_556  A
C531       C1080   1.470   1_545  S
O532        C545   1.285       .  A
O533        C551   1.268       .  A
O533       Cd542   2.016       .  S
O534        C548   1.277       .  A
O534       Cd538   2.103       .  S
O535        C546   1.279       .  A
O535       Cd538   2.067       .  S
Zn536       O547   2.069       .  S
Zn536       O549   1.992       .  S
Zn536       O541   1.932       .  S
O537       Cd542   2.035       .  S
Cd538       O540   2.095       .  S
Cd538       O541   1.976       .  S
Cd539       O552   2.098       .  S
O540        C550   1.280       .  A
O543        C550   1.270   1_554  A
C545        O549   1.268       .  A
C551        O552   1.284       .  A
O553        C569   1.275       .  A
O553       Zn559   1.993       .  S
C554        O570   1.280       .  A
O555        C568   1.285       .  A
O556        C574   1.267       .  A
O556       Cd565   2.014       .  S
O557        C571   1.277       .  A
O557       Cd561   2.095       .  S
O558        C569   1.280       .  A
O558       Cd561   2.071       .  S
Zn559       O570   2.062       .  S
Zn559       O572   1.974       .  S
Zn559       O564   1.935       .  S
O560       Cd565   2.037   1_554  S
Cd561       O563   2.102       .  S
Cd561       O564   1.977       .  S
Cd562       O566   2.064       .  S
Cd562       O575   2.104       .  S
O563        C573   1.280       .  A
Cd565       O567   2.035       .  S
C568        O572   1.267       .  A
C568        C614   1.480       .  S
C569        C596   1.452       .  S
C571        C709   1.468       .  S
C573        C776   1.478       .  S
C574        O575   1.285       .  A
C574        C577   1.455       .  S
O576        C592   1.281       .  A
O576       Zn582   2.072       .  S
C577        O593   1.275       .  A
C577        O590   1.282       .  A
O578        C591   1.285       .  A
O578       Cd585   2.114       .  S
O579        C597   1.281       .  A
O579       Cd588   2.120       .  S
O580        C594   1.270       .  A
O580       Cd584   2.033       .  S
O581        C592   1.266       .  A
O581       Cd584   2.031       .  S
Zn582       O593   1.989       .  S
Zn582       O595   1.996       .  S
Zn582       O587   1.937       .  S
O583        C594   1.279       .  A
O583       Cd588   2.104       .  S
Cd584       O586   2.002       .  S
Cd584       O587   1.949       .  S
Cd585       O589   2.108       .  S
Cd585       O598   2.059       .  S
Cd585       O587   1.978       .  S
O586        C596   1.266       .  A
O587       Cd588   1.981       .  S
Cd588       O590   2.083       .  S
O589        C596   1.285       .  A
C591        O595   1.269       .  A
C591        C637   1.480       .  S
C592       C1121   1.462       .  S
C594        C732   1.469       .  S
C597        O598   1.270       .  A
O599        C615   1.282       .  A
O599       Zn605   2.075       .  S
C600        C643   1.455       .  S
O601        C614   1.285       .  A
O601       Cd608   2.113       .  S
O602        C620   1.281       .  A
O602       Cd611   2.116       .  S
O603        C617   1.272       .  A
O603       Cd607   2.041       .  S
O604        C615   1.267       .  A
O604       Cd607   2.036       .  S
Zn605       O616   1.996       .  S
Zn605       O618   1.999       .  S
Zn605       O610   1.935       .  S
O606        C617   1.277       .  A
O606       Cd611   2.096       .  S
Cd607       O609   2.010       .  S
Cd607       O610   1.948       .  S
Cd608       O612   2.106       .  S
Cd608       O621   2.063       .  S
Cd608       O610   1.975       .  S
O609        C619   1.267       .  A
O610       Cd611   1.979       .  S
Cd611       O613   2.075       .  S
O612        C619   1.285       .  A
C614        O618   1.269       .  A
C615       C1167   1.465       .  S
C617        C663   1.468   1_655  S
C619        C638   1.452       .  S
C620        O621   1.271       .  A
O622        C638   1.276       .  A
O622       Zn628   1.999       .  S
C623        O639   1.280       .  A
C623        O636   1.271       .  A
O624        C637   1.285       .  A
O624       Cd631   2.127       .  S
O625        C643   1.269       .  A
O625       Cd634   2.024       .  S
O626        C640   1.275       .  A
O626       Cd630   2.087       .  S
O627        C638   1.279       .  A
O627       Cd630   2.067       .  S
Zn628       O639   2.062       .  S
Zn628       O641   1.980       .  S
Zn628       O633   1.930       .  S
O629        C640   1.274       .  A
O629       Cd634   2.051       .  S
Cd630       O632   2.094       .  S
Cd630       O633   1.973       .  S
Cd631       O635   2.064       .  S
Cd631       O644   2.098       .  S
Cd631       O633   1.984       .  S
O632        C642   1.279       .  A
O633       Cd634   1.957       .  S
Cd634       O636   2.047       .  S
O635        C642   1.271       .  A
C637        O641   1.267       .  A
C640        C686   1.469   1_655  S
C642       C1190   1.476       .  S
C643        O644   1.284       .  A
O645       Zn651   1.997       .  S
C646        O662   1.281       .  A
C646        O659   1.270       .  A
C646       C1218   1.474       .  S
O647        C660   1.285       .  A
O647       Cd654   2.128       .  S
O648        C666   1.268       .  A
O648       Cd657   2.020       .  S
O649        C663   1.276       .  A
O649       Cd653   2.091       .  S
O650       Cd653   2.068       .  S
Zn651       O662   2.066       .  S
Zn651       O664   1.983       .  S
Zn651       O656   1.935       .  S
O652        C663   1.273       .  A
O652       Cd657   2.045       .  S
Cd653       O655   2.096       .  S
Cd653       O656   1.976       .  S
Cd654       O658   2.063       .  S
Cd654       O667   2.101       .  S
Cd654       O656   1.984       .  S
O655        C665   1.279       .  A
O656       Cd657   1.959       .  S
Cd657       O659   2.043       .  S
O658        C665   1.271       .  A
C660        O664   1.267       .  A
C660        C706   1.481       .  S
C661        C688   1.452       .  S
C666        O667   1.285       .  A
C666        C669   1.456       .  S
O668        C684   1.282       .  A
O668       Zn674   2.077       .  S
C669        O685   1.276       .  A
C669        O682   1.281       .  A
O670        C683   1.284       .  A
O670       Cd677   2.115       .  S
O671        C689   1.281       .  A
O671       Cd680   2.118       .  S
O672        C686   1.271       .  A
O672       Cd676   2.036       .  S
O673        C684   1.266       .  A
O673       Cd676   2.032       .  S
Zn674       O685   1.994       .  S
Zn674       O687   1.996       .  S
Zn674       O679   1.935       .  S
O675        C686   1.278       .  A
O675       Cd680   2.102       .  S
Cd676       O678   2.005       .  S
Cd676       O679   1.948       .  S
Cd677       O681   2.105       .  S
Cd677       O690   2.058       .  S
Cd677       O679   1.977       .  S
O678        C688   1.266       .  A
O679       Cd680   1.982       .  S
Cd680       O682   2.080       .  S
O681        C688   1.284       .  A
C683        O687   1.269       .  A
C683        C729   1.480       .  S
C689        O690   1.270       .  A
C689       C1241   1.472       .  S
O691        C707   1.283       .  A
O691       Zn697   2.073       .  S
C692        O708   1.279       .  A
C692        O705   1.278       .  A
C692        C735   1.454       .  S
O693        C706   1.285       .  A
O694        C712   1.279       .  A
O694       Cd703   2.088       .  S
O695       Cd699   2.044       .  S
O696       Cd699   2.038       .  S
Zn697       O708   2.012       .  S
Zn697       O710   1.996       .  S
Zn697       O702   1.928       .  S
O698        C709   1.275       .  A
O698       Cd703   2.090       .  S
Cd699       O701   2.022       .  S
Cd700       O704   2.095       .  S
Cd700       O713   2.056       .  S
O701        C711   1.270       .  A
O702       Cd703   1.970       .  S
Cd703       O705   2.059       .  S
O704        C711   1.284       .  A
C706        O710   1.269       .  A
C711        C730   1.453       .  S
C712        C899   1.471       .  S
O714        C730   1.278       .  A
O714       Zn720   2.010       .  S
C715        O731   1.282       .  A
C715        O728   1.271       .  A
C715       C1264   1.475       .  S
O716        C729   1.284       .  A
O716       Cd723   2.121       .  S
O717        C735   1.270       .  A
O717       Cd726   2.029       .  S
O718        C732   1.274       .  A
O718       Cd722   2.083       .  S
O719        C730   1.277       .  A
O719       Cd722   2.056       .  S
Zn720       O731   2.068       .  S
Zn720       O733   1.988       .  S
Zn720       O725   1.927       .  S
O721        C732   1.275       .  A
O721       Cd726   2.055       .  S
Cd722       O724   2.081       .  S
Cd722       O725   1.971       .  S
Cd723       O727   2.057       .  S
Cd723       O736   2.092       .  S
Cd723       O725   1.984       .  S
O724        C734   1.278       .  A
O725       Cd726   1.957       .  S
Cd726       O728   2.049       .  S
O727        C734   1.270       .  A
C729        O733   1.268       .  A
C735        O736   1.283       .  A
O737        C753   1.280       .  A
O737       Zn743   2.054       .  S
C738        O754   1.276       .  A
C738        O751   1.281       .  A
C738        C780   1.456       .  S
O739        C752   1.285       .  A
O739       Cd746   2.136       .  S
O740        C758   1.280       .  A
O740       Cd749   2.107       .  S
O741        C755   1.272       .  A
O741       Cd745   2.051       .  S
O742        C753   1.269       .  A
O742       Cd745   2.049       .  S
Zn743       O754   1.991       .  S
Zn743       O756   1.985       .  S
Zn743       O748   1.913       .  S
O744        C755   1.277       .  A
O744       Cd749   2.097       .  S
Cd745       O747   2.017       .  S
Cd745       O748   1.951       .  S
Cd746       O750   2.117       .  S
Cd746       O759   2.078       .  S
Cd746       O748   1.977       .  S
O747        C757   1.267       .  A
O748       Cd749   1.971       .  S
Cd749       O751   2.094       .  S
O750        C757   1.286       .  A
C752        O756   1.267       .  A
C752        C798   1.474       .  S
C755        C893   1.461       .  S
C757        C761   1.453       .  S
C758        O759   1.275       .  A
C758        C965   1.473       .  S
O760        C776   1.283       .  A
O760       Zn766   2.070       .  S
C761        O777   1.279       .  A
C761        O774   1.277       .  A
O762        C775   1.286       .  A
O762      Cd1137   2.135       .  S
O763        C781   1.278       .  A
O763       Cd772   2.073       .  S
O764       C1146   1.273       .  A
O764       Cd768   2.042   1_556  S
O765        C776   1.272       .  A
O765      Cd1136   2.057       .  S
Zn766       O777   2.011       .  S
Zn766       O779   1.983       .  S
Zn766       O771   1.913       .  S
O767        C778   1.277       .  A
O767       Cd772   2.098       .  S
Cd768      O1133   2.057       .  S
Cd768       O770   2.029       .  S
Cd768      O1139   1.952   1_554  S
Cd769      O1130   2.135   1_554  S
Cd769       O773   2.111       .  S
Cd769      O1150   2.073       .  S
Cd769      O1139   1.985   1_554  S
O770        C780   1.269       .  A
O771      Cd1136   1.952       .  S
O771      Cd1137   1.985       .  S
O771       Cd772   1.966       .  S
Cd772       O774   2.068       .  S
O773        C780   1.286       .  A
C775        O779   1.267       .  A
C775        C821   1.473       .  S
C778       O1132   1.273       .  A
C778        C916   1.470       .  S
C781        O782   1.273       .  A
C781       C1290   1.471       .  S
O782      Cd1137   2.073       .  S
O783        C799   1.280       .  A
O783       Zn789   2.061       .  S
C784        O800   1.276       .  A
C784        O797   1.282       .  A
C784        C826   1.456       .  S
O785        C798   1.285       .  A
O785       Cd792   2.135       .  S
O786        C804   1.280       .  A
O786       Cd795   2.107       .  S
O787        C801   1.271       .  A
O787       Cd791   2.045       .  S
O788        C799   1.269       .  A
O788       Cd791   2.050       .  S
Zn789       O800   1.990       .  S
Zn789       O802   1.988       .  S
Zn789       O794   1.914       .  S
O790        C801   1.278       .  A
O790       Cd795   2.100       .  S
Cd791       O793   2.015       .  S
Cd791       O794   1.948       .  S
Cd792       O796   2.122       .  S
Cd792       O805   2.077       .  S
Cd792       O794   1.976       .  S
O793        C803   1.266       .  A
O794       Cd795   1.972       .  S
Cd795       O797   2.095       .  S
O796        C803   1.286       .  A
C798        O802   1.268       .  A
C801        C847   1.460   1_655  S
C803       C1175   1.455       .  S
C804        O805   1.275       .  A
C804        C988   1.473       .  S
O806        C822   1.283       .  A
O806       Zn812   2.071       .  S
C807        O823   1.279       .  A
C807        O820   1.278       .  A
C807       C1171   1.455       .  S
O808        C821   1.286       .  A
O808       Cd815   2.138       .  S
O809        C827   1.278       .  A
O809       Cd818   2.081       .  S
O810        C824   1.270       .  A
O810       Cd814   2.043       .  S
O811        C822   1.271       .  A
O811       Cd814   2.048       .  S
Zn812       O823   2.010       .  S
Zn812       O825   1.978       .  S
Zn812       O817   1.918       .  S
O813        C824   1.277       .  A
O813       Cd818   2.097       .  S
Cd814       O816   2.027       .  S
Cd814       O817   1.956       .  S
Cd815       O819   2.112       .  S
Cd815       O828   2.075       .  S
Cd815       O817   1.986       .  S
O816        C826   1.268       .  A
O817       Cd818   1.966       .  S
Cd818       O820   2.072       .  S
O819        C826   1.286       .  A
C821        O825   1.266       .  A
C824        C870   1.459   1_655  S
C827        O828   1.273       .  A
C827        C991   1.474       .  S
O829        C845   1.283       .  A
O829       Zn835   2.070       .  S
C830        O846   1.279       .  A
C830        O843   1.277       .  A
C830        C872   1.454       .  S
O831        C844   1.286       .  A
O831       Cd838   2.137       .  S
O832        C850   1.279       .  A
O832       Cd841   2.082       .  S
O833        C847   1.272       .  A
O833       Cd837   2.050       .  S
O834        C845   1.271       .  A
O834       Cd837   2.051       .  S
Zn835       O846   2.010       .  S
Zn835       O848   1.985       .  S
Zn835       O840   1.914       .  S
O836        C847   1.277       .  A
O836       Cd841   2.094       .  S
Cd837       O839   2.032       .  S
Cd837       O840   1.955       .  S
Cd838       O842   2.110       .  S
Cd838       O851   2.075       .  S
Cd838       O840   1.984       .  S
O839        C849   1.270       .  A
O840       Cd841   1.964       .  S
Cd841       O843   2.070       .  S
O842        C849   1.286       .  A
C844        O848   1.267       .  A
C844        C890   1.474       .  S
C845       C1033   1.476       .  S
C849       C1221   1.456   1_554  S
C850        O851   1.273       .  A
O852        C868   1.280       .  A
O852       Zn858   2.061       .  S
C853        O869   1.277       .  A
C853        O866   1.281       .  A
C853       C1217   1.456       .  S
O854        C867   1.286       .  A
O854       Cd861   2.125       .  S
O855        C873   1.281       .  A
O855       Cd864   2.110       .  S
O856        C870   1.273       .  A
O856       Cd860   2.051       .  S
O857        C868   1.269       .  A
O857       Cd860   2.048       .  S
Zn858       O869   1.996       .  S
Zn858       O871   1.995       .  S
Zn858       O863   1.919       .  S
O859        C870   1.277       .  A
O859       Cd864   2.093       .  S
Cd860       O862   2.022       .  S
Cd860       O863   1.950       .  S
Cd861       O865   2.111       .  S
Cd861       O874   2.071       .  S
Cd861       O863   1.969       .  S
O862        C872   1.268       .  A
O863       Cd864   1.973       .  S
Cd864       O866   2.092       .  S
O865        C872   1.285       .  A
C867        O871   1.269       .  A
C867        C913   1.482       .  S
C868       C1052   1.464       .  S
C873        O874   1.273       .  A
O875        C891   1.281       .  A
O875       Zn881   2.061       .  S
C876        O892   1.277       .  A
C876        O889   1.279       .  A
C876        C919   1.453       .  S
O877        C890   1.286       .  A
O877       Cd884   2.140       .  S
O878        C896   1.279       .  A
O878       Cd887   2.090       .  S
O879        C893   1.270       .  A
O879       Cd883   2.049       .  S
O880        C891   1.268       .  A
O880       Cd883   2.034       .  S
Zn881       O892   2.000       .  S
Zn881       O894   1.976       .  S
Zn881       O886   1.927       .  S
O882        C893   1.276       .  A
O882       Cd887   2.095       .  S
Cd883       O885   2.017       .  S
Cd883       O886   1.960       .  S
Cd884       O888   2.105       .  S
Cd884       O897   2.066       .  S
Cd884       O886   1.993       .  S
O885        C895   1.269       .  A
O886       Cd887   1.970       .  S
Cd887       O889   2.064       .  S
O888        C895   1.285       .  A
C890        O894   1.266       .  A
C891       C1102   1.469       .  S
C895        C914   1.455       .  S
C896        O897   1.272       .  A
O898        C914   1.277       .  A
O898       Zn904   2.006       .  S
C899        O915   1.282       .  A
C899        O912   1.268       .  A
O900        C913   1.285       .  A
O900      Cd1275   2.124       .  S
O901        C919   1.268       .  A
O901       Cd910   2.016       .  S
O902        C916   1.277       .  A
O902       Cd906   2.103       .  S
O903        C914   1.279       .  A
O903       Cd906   2.067       .  S
Zn904       O915   2.069       .  S
Zn904       O917   1.992       .  S
Zn904       O909   1.932       .  S
O905       C1284   1.271       .  A
O905       Cd910   2.035   1_556  S
Cd906       O908   2.095       .  S
Cd906       O909   1.976       .  S
Cd907      O1268   2.124       .  S
Cd907      O1279   2.057   1_556  S
Cd907       O920   2.098   1_556  S
Cd907      O1277   1.988       .  S
O908        C918   1.280       .  A
O909      Cd1275   1.988       .  S
O909      Cd1278   1.957       .  S
Cd910      O1280   2.032       .  S
Cd910      O1277   1.957   1_554  S
O911        C918   1.270       .  A
O911      Cd1275   2.057       .  S
O912      Cd1278   2.032       .  S
C913        O917   1.268       .  A
C916       O1273   1.271       .  A
C918       C1443   1.473       .  S
C919        O920   1.284       .  A
O921        C937   1.275       .  A
O921       Zn927   1.993       .  S
C922        O938   1.280       .  A
C922       O1303   1.269   1_554  A
C922       C1149   1.471   1_554  S
O923        C936   1.285       .  A
O923      Cd1298   2.130   1_554  S
O924        C942   1.267       .  A
O924       Cd933   2.014       .  S
O925        C939   1.277       .  A
O925       Cd929   2.095       .  S
O926        C937   1.280       .  A
O926       Cd929   2.071       .  S
Zn927       O938   2.062       .  S
Zn927       O940   1.974       .  S
Zn927       O932   1.935       .  S
O928       C1307   1.271       .  A
O928       Cd933   2.037       .  S
Cd929       O931   2.102       .  S
Cd929       O932   1.977       .  S
Cd930      O1291   2.130       .  S
Cd930       O934   2.064       .  S
Cd930       O943   2.104       .  S
Cd930      O1300   1.985       .  S
O931        C941   1.280       .  A
O932      Cd1298   1.985   1_554  S
O932      Cd1301   1.956   1_554  S
Cd933       O935   2.035       .  S
Cd933      O1300   1.956       .  S
O934       C1309   1.271       .  A
O935       C1290   1.269       .  A
C936        O940   1.267       .  A
C936        C982   1.480       .  S
C937        C964   1.452       .  S
C939       O1296   1.271       .  A
C939       C1077   1.468       .  S
C941       O1302   1.271   1_554  A
C942        O943   1.285       .  A
C942        C945   1.455       .  S
O944        C960   1.281       .  A
O944       Zn950   2.072       .  S
C945        O961   1.275       .  A
C945        O958   1.282       .  A
O946        C959   1.285       .  A
O946       Cd953   2.114       .  S
O947        C965   1.281       .  A
O947       Cd956   2.120       .  S
O948        C962   1.270       .  A
O948       Cd952   2.033       .  S
O949        C960   1.266       .  A
O949       Cd952   2.031       .  S
Zn950       O961   1.989       .  S
Zn950       O963   1.996       .  S
Zn950       O955   1.937       .  S
O951        C962   1.279       .  A
O951       Cd956   2.104       .  S
Cd952       O954   2.002       .  S
Cd952       O955   1.949       .  S
Cd953       O957   2.108       .  S
Cd953       O966   2.059       .  S
Cd953       O955   1.978       .  S
O954        C964   1.265       .  A
O955       Cd956   1.981       .  S
Cd956       O958   2.083       .  S
O957        C964   1.285       .  A
C959        O963   1.269       .  A
C959       C1005   1.480       .  S
C962       C1100   1.469       .  S
C965        O966   1.270       .  A
O967        C983   1.282       .  A
O967       Zn973   2.075       .  S
C968       O1352   1.276       .  A
C968       O1349   1.280       .  A
C968       C1011   1.455       .  S
O969        C982   1.285       .  A
O969       Cd976   2.113       .  S
O970        C988   1.281       .  A
O970       Cd979   2.116       .  S
O971        C985   1.272       .  A
O971       Cd975   2.041       .  S
O972        C983   1.267       .  A
O972       Cd975   2.036       .  S
Zn973       O984   1.996       .  S
Zn973       O986   1.999       .  S
Zn973       O978   1.935       .  S
O974        C985   1.277       .  A
O974       Cd979   2.096       .  S
Cd975       O977   2.010       .  S
Cd975       O978   1.948       .  S
Cd976       O980   2.106       .  S
Cd976       O989   2.063       .  S
Cd976       O978   1.975       .  S
O977        C987   1.267       .  A
O978       Cd979   1.979       .  S
Cd979       O981   2.075       .  S
O980        C987   1.285       .  A
O981       C1336   1.280   1_554  A
C982        O986   1.269       .  A
O984       C1336   1.276   1_554  A
C985       C1031   1.468   1_655  S
C987       C1006   1.452       .  S
C988        O989   1.271       .  A
O990       C1006   1.276       .  A
O990       Zn996   1.999       .  S
C991       O1007   1.280       .  A
C991       O1004   1.271       .  A
O992       C1005   1.285       .  A
O992       Cd999   2.127       .  S
O993       C1011   1.269       .  A
O993      Cd1002   2.024       .  S
O994       C1008   1.275       .  A
O994       Cd998   2.087       .  S
O995       C1006   1.279       .  A
O995       Cd998   2.067       .  S
Zn996      O1007   2.062       .  S
Zn996      O1009   1.980       .  S
Zn996      O1001   1.930       .  S
O997       C1008   1.274       .  A
O997      Cd1002   2.051       .  S
Cd998      O1000   2.094       .  S
Cd998      O1001   1.973       .  S
Cd999      O1003   2.064       .  S
Cd999      O1012   2.098       .  S
Cd999      O1001   1.984       .  S
O1000      C1010   1.279       .  A
O1001     Cd1002   1.957       .  S
Cd1002     O1004   2.047       .  S
O1003      C1010   1.271       .  A
C1005      O1009   1.267       .  A
C1008      C1054   1.469   1_655  S
C1011      O1012   1.284       .  A
O1013      C1397   1.276   1_554  A
O1013     Zn1019   1.997       .  S
C1014      O1030   1.281       .  A
C1014      O1027   1.270       .  A
O1015      C1028   1.285       .  A
O1015     Cd1022   2.128       .  S
O1016      C1034   1.268       .  A
O1016     Cd1025   2.020       .  S
O1017      C1031   1.276       .  A
O1017     Cd1021   2.091       .  S
O1018      C1397   1.280   1_554  A
O1018     Cd1021   2.068       .  S
Zn1019     O1030   2.066       .  S
Zn1019     O1032   1.984       .  S
Zn1019     O1024   1.935       .  S
O1020      C1031   1.273       .  A
O1020     Cd1025   2.045       .  S
Cd1021     O1023   2.096       .  S
Cd1021     O1024   1.976       .  S
Cd1022     O1026   2.063       .  S
Cd1022     O1035   2.101       .  S
Cd1022     O1024   1.984       .  S
O1023      C1033   1.279       .  A
O1024     Cd1025   1.959       .  S
Cd1025     O1027   2.043       .  S
O1026      C1033   1.271       .  A
C1028      O1032   1.267       .  A
C1028      C1074   1.481       .  S
C1029      O1381   1.276       .  A
C1029      O1386   1.280       .  A
C1029      C1056   1.452       .  S
C1034      O1035   1.285       .  A
C1034      C1037   1.456       .  S
O1036      C1052   1.282       .  A
O1036     Zn1042   2.077       .  S
C1037      O1053   1.276       .  A
C1037      O1050   1.281       .  A
O1038      C1051   1.284       .  A
O1038     Cd1045   2.115       .  S
O1039      C1057   1.281       .  A
O1039     Cd1048   2.118       .  S
O1040      C1054   1.271       .  A
O1040     Cd1044   2.036       .  S
O1041      C1052   1.266       .  A
O1041     Cd1044   2.032       .  S
Zn1042     O1053   1.994       .  S
Zn1042     O1055   1.996       .  S
Zn1042     O1047   1.935       .  S
O1043      C1054   1.278       .  A
O1043     Cd1048   2.102       .  S
Cd1044     O1046   2.005       .  S
Cd1044     O1047   1.948       .  S
Cd1045     O1049   2.105       .  S
Cd1045     O1058   2.058       .  S
Cd1045     O1047   1.977       .  S
O1046      C1056   1.266       .  A
O1047     Cd1048   1.982       .  S
Cd1048     O1050   2.080       .  S
O1049      C1056   1.284       .  A
C1051      O1055   1.269       .  A
C1051      C1097   1.480       .  S
C1057      O1058   1.270       .  A
O1059      C1075   1.283   1_554  A
O1059     Zn1065   2.073       .  S
C1060      O1076   1.279       .  A
C1060      O1073   1.277       .  A
C1060      C1103   1.454       .  S
O1061      C1074   1.285       .  A
O1061     Cd1436   2.118   1_554  S
O1062      C1080   1.279   1_554  A
O1062     Cd1071   2.088       .  S
O1063      C1445   1.272       .  A
O1063     Cd1067   2.044       .  S
O1064      C1443   1.269       .  A
O1064     Cd1067   2.038       .  S
Zn1065     O1076   2.012       .  S
Zn1065     O1078   1.996       .  S
Zn1065     O1070   1.928       .  S
O1066      C1077   1.275       .  A
O1066     Cd1071   2.090       .  S
Cd1067     O1069   2.022       .  S
Cd1067     O1438   1.954       .  S
Cd1068     O1429   2.118       .  S
Cd1068     O1072   2.095       .  S
Cd1068     O1081   2.056       .  S
Cd1068     O1438   1.982       .  S
O1069      C1079   1.270       .  A
O1070     Cd1435   1.954   1_554  S
O1070     Cd1436   1.982   1_554  S
O1070     Cd1071   1.970       .  S
Cd1071     O1073   2.059       .  S
O1072      C1079   1.284       .  A
C1074      O1078   1.269       .  A
C1075      O1432   1.269       .  A
C1075      C1286   1.473       .  S
C1077      O1431   1.272   1_554  A
C1079      C1098   1.453       .  S
C1080      O1449   1.270       .  A
O1081      C1448   1.270       .  A
O1082      C1098   1.278       .  A
O1082     Zn1088   2.010       .  S
C1083      O1099   1.282       .  A
C1083      O1096   1.271       .  A
O1084      C1097   1.284       .  A
O1084     Cd1091   2.121       .  S
O1085      C1103   1.270       .  A
O1085     Cd1094   2.029       .  S
O1086      C1100   1.274       .  A
O1086     Cd1090   2.083       .  S
O1087      C1098   1.277       .  A
O1087     Cd1090   2.056       .  S
Zn1088     O1099   2.068       .  S
Zn1088     O1101   1.988       .  S
Zn1088     O1093   1.927       .  S
O1089      C1100   1.275       .  A
O1089     Cd1094   2.055       .  S
Cd1090     O1092   2.081       .  S
Cd1090     O1093   1.971       .  S
Cd1091     O1095   2.057       .  S
Cd1091     O1104   2.092       .  S
Cd1091     O1093   1.984       .  S
O1092      C1102   1.278       .  A
O1093     Cd1094   1.957       .  S
Cd1094     O1096   2.049       .  S
O1095      C1102   1.270       .  A
C1097      O1101   1.268       .  A
C1103      O1104   1.283       .  A
O1105      C1121   1.280       .  A
O1105     Zn1111   2.054       .  S
C1106      O1122   1.276       .  A
C1106      O1119   1.281       .  A
C1106      C1148   1.456       .  S
O1107      C1120   1.285       .  A
O1107     Cd1114   2.136       .  S
O1108      C1126   1.280       .  A
O1108     Cd1117   2.107       .  S
O1109      C1123   1.272       .  A
O1109     Cd1113   2.051       .  S
O1110      C1121   1.269       .  A
O1110     Cd1113   2.049       .  S
Zn1111     O1122   1.991       .  S
Zn1111     O1124   1.985       .  S
Zn1111     O1116   1.913       .  S
O1112      C1123   1.278       .  A
O1112     Cd1117   2.097       .  S
Cd1113     O1115   2.017       .  S
Cd1113     O1116   1.951       .  S
Cd1114     O1118   2.117       .  S
Cd1114     O1127   2.078       .  S
Cd1114     O1116   1.977       .  S
O1115      C1125   1.267       .  A
O1116     Cd1117   1.971       .  S
Cd1117     O1119   2.094       .  S
O1118      C1125   1.286       .  A
C1120      O1124   1.267       .  A
C1120      C1166   1.474       .  S
C1123      C1261   1.461       .  S
C1125      C1129   1.454       .  S
C1126      O1127   1.275       .  A
C1126      C1333   1.473       .  S
O1128      C1144   1.283       .  A
O1128     Zn1134   2.070       .  S
C1129      O1145   1.279       .  A
C1129      O1142   1.277       .  A
O1130      C1143   1.286       .  A
O1131      C1149   1.278       .  A
O1131     Cd1140   2.073       .  S
O1132     Cd1136   2.042       .  S
O1133      C1144   1.272   1_554  A
Zn1134     O1145   2.011       .  S
Zn1134     O1147   1.983       .  S
Zn1134     O1139   1.913       .  S
O1135      C1146   1.277       .  A
O1135     Cd1140   2.098       .  S
Cd1136     O1138   2.029       .  S
Cd1137     O1141   2.111       .  S
O1138      C1148   1.269       .  A
O1139     Cd1140   1.966       .  S
Cd1140     O1142   2.068       .  S
O1141      C1148   1.286       .  A
C1143      O1147   1.267       .  A
C1143      C1189   1.473       .  S
C1146      C1284   1.470       .  S
C1149      O1150   1.273   1_556  A
O1151      C1167   1.280       .  A
O1151     Zn1157   2.061       .  S
C1152      O1168   1.276       .  A
C1152      O1165   1.282       .  A
C1152      C1194   1.456       .  S
O1153      C1166   1.285       .  A
O1153     Cd1160   2.135       .  S
O1154      C1172   1.280       .  A
O1154     Cd1163   2.107       .  S
O1155      C1169   1.271       .  A
O1155     Cd1159   2.045       .  S
O1156      C1167   1.269       .  A
O1156     Cd1159   2.050       .  S
Zn1157     O1168   1.990       .  S
Zn1157     O1170   1.988       .  S
Zn1157     O1162   1.914       .  S
O1158      C1169   1.278       .  A
O1158     Cd1163   2.100       .  S
Cd1159     O1161   2.015       .  S
Cd1159     O1162   1.948       .  S
Cd1160     O1164   2.122       .  S
Cd1160     O1173   2.077       .  S
Cd1160     O1162   1.976       .  S
O1161      C1171   1.266       .  A
O1162     Cd1163   1.972       .  S
Cd1163     O1165   2.095       .  S
O1164      C1171   1.286       .  A
C1166      O1170   1.268       .  A
C1169      C1215   1.460   1_655  S
C1172      O1173   1.275       .  A
C1172      C1356   1.473       .  S
O1174      C1190   1.283       .  A
O1174     Zn1180   2.071       .  S
C1175      O1191   1.279   1_554  A
C1175      O1188   1.278   1_554  A
O1176      C1189   1.286       .  A
O1176     Cd1183   2.138       .  S
O1177      C1195   1.278       .  A
O1177     Cd1186   2.081       .  S
O1178      C1192   1.270       .  A
O1178     Cd1182   2.043       .  S
O1179      C1190   1.271       .  A
O1179     Cd1182   2.048       .  S
Zn1180     O1191   2.010       .  S
Zn1180     O1193   1.978       .  S
Zn1180     O1185   1.918       .  S
O1181      C1192   1.277       .  A
O1181     Cd1186   2.097       .  S
Cd1182     O1184   2.027       .  S
Cd1182     O1185   1.956       .  S
Cd1183     O1187   2.112       .  S
Cd1183     O1196   2.075       .  S
Cd1183     O1185   1.986       .  S
O1184      C1194   1.268       .  A
O1185     Cd1186   1.966       .  S
Cd1186     O1188   2.072       .  S
O1187      C1194   1.286       .  A
C1189      O1193   1.266       .  A
C1192      C1238   1.459   1_655  S
C1195      O1196   1.273       .  A
C1195      C1359   1.474       .  S
O1197      C1213   1.283       .  A
O1197     Zn1203   2.070       .  S
C1198      O1214   1.279       .  A
C1198      O1211   1.277       .  A
C1198      C1240   1.454       .  S
O1199      C1212   1.286       .  A
O1199     Cd1206   2.137       .  S
O1200      C1218   1.279       .  A
O1200     Cd1209   2.082       .  S
O1201      C1215   1.272       .  A
O1201     Cd1205   2.050       .  S
O1202      C1213   1.271       .  A
O1202     Cd1205   2.051       .  S
Zn1203     O1214   2.010       .  S
Zn1203     O1216   1.985       .  S
Zn1203     O1208   1.914       .  S
O1204      C1215   1.277       .  A
O1204     Cd1209   2.094       .  S
Cd1205     O1207   2.032       .  S
Cd1205     O1208   1.955       .  S
Cd1206     O1210   2.110       .  S
Cd1206     O1219   2.075       .  S
Cd1206     O1208   1.984       .  S
O1207      C1217   1.270       .  A
O1208     Cd1209   1.964       .  S
Cd1209     O1211   2.070       .  S
O1210      C1217   1.286       .  A
C1212      O1216   1.267       .  A
C1212      C1258   1.474       .  S
C1213      C1401   1.476       .  S
C1218      O1219   1.273       .  A
O1220      C1236   1.280       .  A
O1220     Zn1226   2.061       .  S
C1221      O1237   1.277       .  A
C1221      O1234   1.281       .  A
O1222      C1235   1.286       .  A
O1222     Cd1229   2.125       .  S
O1223      C1241   1.281       .  A
O1223     Cd1232   2.110       .  S
O1224      C1238   1.273       .  A
O1224     Cd1228   2.051       .  S
O1225      C1236   1.269       .  A
O1225     Cd1228   2.048       .  S
Zn1226     O1237   1.996       .  S
Zn1226     O1239   1.995       .  S
Zn1226     O1231   1.919       .  S
O1227      C1238   1.277       .  A
O1227     Cd1232   2.093       .  S
Cd1228     O1230   2.022       .  S
Cd1228     O1231   1.950       .  S
Cd1229     O1233   2.111       .  S
Cd1229     O1242   2.071       .  S
Cd1229     O1231   1.969       .  S
O1230      C1240   1.268       .  A
O1231     Cd1232   1.973       .  S
Cd1232     O1234   2.092       .  S
O1233      C1240   1.285       .  A
C1235      O1239   1.269       .  A
C1235      C1281   1.482       .  S
C1236      C1420   1.464       .  S
C1241      O1242   1.273       .  A
O1243      C1259   1.281       .  A
O1243     Zn1249   2.061       .  S
C1244      O1260   1.277       .  A
C1244      O1257   1.279       .  A
C1244      C1287   1.453       .  S
O1245      C1258   1.286       .  A
O1245     Cd1252   2.140       .  S
O1246      C1264   1.279       .  A
O1246     Cd1255   2.090       .  S
O1247      C1261   1.270       .  A
O1247     Cd1251   2.049       .  S
O1248      C1259   1.268       .  A
O1248     Cd1251   2.034       .  S
Zn1249     O1260   2.000       .  S
Zn1249     O1262   1.976       .  S
Zn1249     O1254   1.927       .  S
O1250      C1261   1.276       .  A
O1250     Cd1255   2.095       .  S
Cd1251     O1253   2.017       .  S
Cd1251     O1254   1.960       .  S
Cd1252     O1256   2.105       .  S
Cd1252     O1265   2.066       .  S
Cd1252     O1254   1.993       .  S
O1253      C1263   1.269       .  A
O1254     Cd1255   1.970       .  S
Cd1255     O1257   2.064       .  S
O1256      C1263   1.285       .  A
C1258      O1262   1.266       .  A
C1259      C1470   1.469       .  S
C1263      C1282   1.455       .  S
C1264      O1265   1.272       .  A
O1266      C1282   1.277       .  A
O1266     Zn1272   2.006       .  S
C1267      O1283   1.282       .  A
C1267      O1280   1.268   1_556  A
O1268      C1281   1.285       .  A
O1269      C1287   1.268       .  A
O1269     Cd1278   2.016       .  S
O1270      C1284   1.277       .  A
O1270     Cd1274   2.103       .  S
O1271      C1282   1.279       .  A
O1271     Cd1274   2.067       .  S
Zn1272     O1283   2.069       .  S
Zn1272     O1285   1.992       .  S
Zn1272     O1277   1.932       .  S
O1273     Cd1278   2.035       .  S
Cd1274     O1276   2.095       .  S
Cd1274     O1277   1.976       .  S
Cd1275     O1288   2.098       .  S
O1276      C1286   1.280       .  A
O1279      C1286   1.270   1_554  A
C1281      O1285   1.268       .  A
C1287      O1288   1.284       .  A
O1289      C1305   1.275       .  A
O1289     Zn1295   1.993       .  S
C1290      O1306   1.280       .  A
O1291      C1304   1.285       .  A
O1292      C1310   1.267       .  A
O1292     Cd1301   2.014       .  S
O1293      C1307   1.277       .  A
O1293     Cd1297   2.095       .  S
O1294      C1305   1.280       .  A
O1294     Cd1297   2.071       .  S
Zn1295     O1306   2.062       .  S
Zn1295     O1308   1.974       .  S
Zn1295     O1300   1.935       .  S
O1296     Cd1301   2.037   1_554  S
Cd1297     O1299   2.102       .  S
Cd1297     O1300   1.977       .  S
Cd1298     O1302   2.064       .  S
Cd1298     O1311   2.104       .  S
O1299      C1309   1.280       .  A
Cd1301     O1303   2.035       .  S
C1304      O1308   1.267       .  A
C1304      C1350   1.480       .  S
C1305      C1332   1.452       .  S
C1307      C1445   1.468       .  S
C1310      O1311   1.285       .  A
C1310      C1313   1.455       .  S
O1312      C1328   1.281       .  A
O1312     Zn1318   2.072       .  S
C1313      O1329   1.275       .  A
C1313      O1326   1.282       .  A
O1314      C1327   1.285       .  A
O1314     Cd1321   2.114       .  S
O1315      C1333   1.281       .  A
O1315     Cd1324   2.120       .  S
O1316      C1330   1.270       .  A
O1316     Cd1320   2.033       .  S
O1317      C1328   1.266       .  A
O1317     Cd1320   2.031       .  S
Zn1318     O1329   1.989       .  S
Zn1318     O1331   1.996       .  S
Zn1318     O1323   1.937       .  S
O1319      C1330   1.279       .  A
O1319     Cd1324   2.104       .  S
Cd1320     O1322   2.002       .  S
Cd1320     O1323   1.949       .  S
Cd1321     O1325   2.108       .  S
Cd1321     O1334   2.059       .  S
Cd1321     O1323   1.978       .  S
O1322      C1332   1.266       .  A
O1323     Cd1324   1.981       .  S
Cd1324     O1326   2.083       .  S
O1325      C1332   1.285       .  A
C1327      O1331   1.269       .  A
C1327      C1373   1.480       .  S
C1330      C1468   1.469       .  S
C1333      O1334   1.270       .  A
O1335      C1351   1.282       .  A
O1335     Zn1341   2.075       .  S
C1336      C1379   1.455       .  S
O1337      C1350   1.285       .  A
O1337     Cd1344   2.113       .  S
O1338      C1356   1.281       .  A
O1338     Cd1347   2.116       .  S
O1339      C1353   1.272       .  A
O1339     Cd1343   2.041       .  S
O1340      C1351   1.267       .  A
O1340     Cd1343   2.036       .  S
Zn1341     O1352   1.996       .  S
Zn1341     O1354   1.999       .  S
Zn1341     O1346   1.935       .  S
O1342      C1353   1.277       .  A
O1342     Cd1347   2.096       .  S
Cd1343     O1345   2.010       .  S
Cd1343     O1346   1.948       .  S
Cd1344     O1348   2.106       .  S
Cd1344     O1357   2.063       .  S
Cd1344     O1346   1.975       .  S
O1345      C1355   1.267       .  A
O1346     Cd1347   1.979       .  S
Cd1347     O1349   2.075       .  S
O1348      C1355   1.285       .  A
C1350      O1354   1.269       .  A
C1353      C1399   1.468   1_655  S
C1355      C1374   1.452       .  S
C1356      O1357   1.271       .  A
O1358      C1374   1.276       .  A
O1358     Zn1364   1.999       .  S
C1359      O1375   1.281       .  A
C1359      O1372   1.271       .  A
O1360      C1373   1.285       .  A
O1360     Cd1367   2.127       .  S
O1361      C1379   1.269       .  A
O1361     Cd1370   2.024       .  S
O1362      C1376   1.275       .  A
O1362     Cd1366   2.087       .  S
O1363      C1374   1.279       .  A
O1363     Cd1366   2.067       .  S
Zn1364     O1375   2.062       .  S
Zn1364     O1377   1.980       .  S
Zn1364     O1369   1.930       .  S
O1365      C1376   1.274       .  A
O1365     Cd1370   2.051       .  S
Cd1366     O1368   2.094       .  S
Cd1366     O1369   1.973       .  S
Cd1367     O1371   2.064       .  S
Cd1367     O1380   2.098       .  S
Cd1367     O1369   1.984       .  S
O1368      C1378   1.279       .  A
O1369     Cd1370   1.957       .  S
Cd1370     O1372   2.047       .  S
O1371      C1378   1.271       .  A
C1373      O1377   1.267       .  A
C1376      C1422   1.469   1_655  S
C1379      O1380   1.284       .  A
O1381     Zn1387   1.997       .  S
C1382      O1398   1.281       .  A
C1382      O1395   1.270       .  A
O1383      C1396   1.285       .  A
O1383     Cd1390   2.128       .  S
O1384      C1402   1.268       .  A
O1384     Cd1393   2.020       .  S
O1385      C1399   1.276       .  A
O1385     Cd1389   2.091       .  S
O1386     Cd1389   2.068       .  S
Zn1387     O1398   2.066       .  S
Zn1387     O1400   1.984       .  S
Zn1387     O1392   1.935       .  S
O1388      C1399   1.273       .  A
O1388     Cd1393   2.045       .  S
Cd1389     O1391   2.096       .  S
Cd1389     O1392   1.976       .  S
Cd1390     O1394   2.063       .  S
Cd1390     O1403   2.101       .  S
Cd1390     O1392   1.984       .  S
O1391      C1401   1.279       .  A
O1392     Cd1393   1.959       .  S
Cd1393     O1395   2.043       .  S
O1394      C1401   1.271       .  A
C1396      O1400   1.267       .  A
C1396      C1442   1.481       .  S
C1397      C1424   1.452       .  S
C1402      O1403   1.285       .  A
C1402      C1405   1.456       .  S
O1404      C1420   1.282       .  A
O1404     Zn1410   2.077       .  S
C1405      O1421   1.276       .  A
C1405      O1418   1.281       .  A
O1406      C1419   1.284       .  A
O1406     Cd1413   2.115       .  S
O1407      C1425   1.281       .  A
O1407     Cd1416   2.118       .  S
O1408      C1422   1.271       .  A
O1408     Cd1412   2.036       .  S
O1409      C1420   1.266       .  A
O1409     Cd1412   2.032       .  S
Zn1410     O1421   1.994       .  S
Zn1410     O1423   1.996       .  S
Zn1410     O1415   1.935       .  S
O1411      C1422   1.278       .  A
O1411     Cd1416   2.102       .  S
Cd1412     O1414   2.005       .  S
Cd1412     O1415   1.948       .  S
Cd1413     O1417   2.105       .  S
Cd1413     O1426   2.058       .  S
Cd1413     O1415   1.977       .  S
O1414      C1424   1.266       .  A
O1415     Cd1416   1.982       .  S
Cd1416     O1418   2.080       .  S
O1417      C1424   1.284       .  A
C1419      O1423   1.269       .  A
C1419      C1465   1.480       .  S
C1425      O1426   1.270       .  A
O1427      C1443   1.284       .  A
O1427     Zn1433   2.073       .  S
C1428      O1444   1.279       .  A
C1428      O1441   1.277       .  A
C1428      C1471   1.454       .  S
O1429      C1442   1.285       .  A
O1430      C1448   1.279       .  A
O1430     Cd1439   2.088       .  S
O1431     Cd1435   2.044       .  S
O1432     Cd1435   2.038       .  S
Zn1433     O1444   2.012       .  S
Zn1433     O1446   1.996       .  S
Zn1433     O1438   1.928       .  S
O1434      C1445   1.275       .  A
O1434     Cd1439   2.090       .  S
Cd1435     O1437   2.022       .  S
Cd1436     O1440   2.095       .  S
Cd1436     O1449   2.056       .  S
O1437      C1447   1.270       .  A
O1438     Cd1439   1.970       .  S
Cd1439     O1441   2.059       .  S
O1440      C1447   1.284       .  A
C1442      O1446   1.269       .  A
C1447      C1466   1.453       .  S
O1450      C1466   1.278       .  A
O1450     Zn1456   2.010       .  S
C1451      O1467   1.282       .  A
C1451      O1464   1.271       .  A
O1452      C1465   1.284       .  A
O1452     Cd1459   2.121       .  S
O1453      C1471   1.270       .  A
O1453     Cd1462   2.029       .  S
O1454      C1468   1.274       .  A
O1454     Cd1458   2.083       .  S
O1455      C1466   1.277       .  A
O1455     Cd1458   2.056       .  S
Zn1456     O1467   2.068       .  S
Zn1456     O1469   1.988       .  S
Zn1456     O1461   1.927       .  S
O1457      C1468   1.275       .  A
O1457     Cd1462   2.055       .  S
Cd1458     O1460   2.081       .  S
Cd1458     O1461   1.971       .  S
Cd1459     O1463   2.057       .  S
Cd1459     O1472   2.092       .  S
Cd1459     O1461   1.984       .  S
O1460      C1470   1.278       .  A
O1461     Cd1462   1.957       .  S
Cd1462     O1464   2.049       .  S
O1463      C1470   1.270       .  A
C1465      O1469   1.268       .  A
C1471      O1472   1.283       .  A
