geometry optimzed in LAMMPS
_audit_creation_date              2020-12-01 
_audit_creation_method            'lammps2cif' 
_symmetry_space_group_name_H-M    'P1' 
_symmetry_Int_Tables_number       1 
_symmetry_cell_setting            triclinic 
loop_ 
_symmetry_equiv_pos_as_xyz 
  x,y,z 
_cell_length_a                    33.25176003 
_cell_length_b                    33.34778955007244 
_cell_length_c                    33.896828818158845 
_cell_angle_alpha                 91.4350390339263 
_cell_angle_beta                  90.51327671993859 
_cell_angle_gamma                 90.2614007368108 
loop_ 
_atom_site_label 
_atom_site_type_symbol 
_atom_site_fract_x 
_atom_site_fract_y 
_atom_site_fract_z 
_atom_site_charge 
C1          C  0.58175847  0.46438257  0.31597713     0.80500
N2          N  0.56066651  0.45448822  0.28266349    -0.77800
C3          C  0.53428063  0.48101282  0.26759609     0.82900
N4          N  0.52905854  0.51723434  0.28555219    -0.77800
C5          C  0.54933129  0.52717199  0.31925069     0.83000
N6          N  0.57578720  0.50067518  0.33425558    -0.79500
C7          C  0.29923436  0.43712255  0.90405933     0.80500
N8          N  0.32126454  0.44892457  0.93624978    -0.77800
C9          C  0.34600560  0.42229900  0.95383174     0.82900
N10         N  0.34879697  0.38407831  0.93956651    -0.77800
C11         C  0.32754968  0.37203089  0.90721334     0.83000
N12         N  0.30292881  0.39881524  0.88983064    -0.79500
C13         C  0.63439159  0.58352840  0.03174031     0.80500
N14         N  0.64741568  0.56891008  0.99636905    -0.77800
C15         C  0.62436410  0.54265310  0.97418369     0.82900
N16         N  0.58808378  0.53073049  0.98816345    -0.77800
C17         C  0.57483476  0.54528863  0.02340013     0.83000
N18         N  0.59820909  0.57113189  0.04484693    -0.79500
C19         C  0.34191770  0.66854230  0.02618752     0.80500
N20         N  0.35752045  0.68042301  0.99136684    -0.77800
C21         C  0.38474036  0.65701080  0.97169399     0.82900
N22         N  0.39665334  0.62163817  0.98753577    -0.77800
C23         C  0.38102905  0.60949805  0.02221637     0.83000
N24         N  0.35403888  0.63317264  0.04110512    -0.79500
C25         C  0.25413472  0.30993384  0.18493415     0.80500
N26         N  0.24263637  0.31989638  0.22212965    -0.77800
C27         C  0.26500686  0.34489363  0.24596512     0.82900
N28         N  0.30012977  0.35994251  0.23190562    -0.77800
C29         C  0.31238048  0.34955817  0.19474382     0.83000
N30         N  0.28893881  0.32517190  0.17136940    -0.79500
C31         C  0.54559303  0.24120591  0.19733394     0.80500
N32         N  0.53077953  0.23066746  0.23276132    -0.77800
C33         C  0.50255965  0.25354455  0.25165578     0.82900
N34         N  0.48910294  0.28747446  0.23433659    -0.77800
C35         C  0.50370421  0.29822548  0.19872999     0.83000
N36         N  0.53170176  0.27500652  0.18063089    -0.79500
Zr37       Zr  0.43572685  0.42251778  0.18228541     2.17500
O38         O  0.41208823  0.43804871  0.24880353    -0.51100
O39         O  0.46603825  0.35841762  0.19745071    -0.74300
O40         O  0.37431173  0.38569916  0.19763227    -0.81000
O41         O  0.52443960  0.49272823  0.20108640    -0.82800
O42         O  0.34267997  0.37377374  0.13875802    -0.78400
O43         O  0.48550699  0.44576244  0.23038465    -0.90100
O44         O  0.50061321  0.33828080  0.14292636    -0.76000
O45         O  0.42789444  0.38083898  0.12463655    -0.85500
O46         O  0.49775012  0.42486338  0.14761513    -0.85200
O47         O  0.38151722  0.45255552  0.14632936    -0.72000
O48         O  0.44660335  0.49199326  0.16782782    -0.84100
Zr49       Zr  0.44624791  0.48256931  0.03703637     2.26400
Zr50       Zr  0.37513670  0.41111487  0.08817203     2.06300
Zr51       Zr  0.50786862  0.49331482  0.13175333     2.10000
Zr52       Zr  0.48935850  0.38434665  0.08967066     1.78800
O53         O  0.52384085  0.56064479  0.15680614    -0.92900
O54         O  0.46674669  0.31973769  0.06222260    -0.40700
O55         O  0.50080328  0.45282476  0.07287244    -0.77300
O56         O  0.43620213  0.41292528  0.05160607    -0.96000
O57         O  0.38450407  0.47986903  0.07202596    -0.89300
O58         O  0.45519017  0.52367611  0.09495649    -0.92200
C59         C  0.48907101  0.33397868  0.17862528     1.01600
C60         C  0.51354823  0.47228187  0.23064290     1.14500
C61         C  0.34573235  0.37057111  0.17621324     1.05300
O62         O  0.36366194  0.34377775  0.06077843    -0.94300
O63         O  0.35600993  0.41287819  0.02012526    -0.90100
O64         O  0.39538584  0.45870062  0.98979461    -0.83200
C65         C  0.36685258  0.43265865  0.99025908     1.11900
O66         O  0.36313790  0.53855668  0.19270708    -0.96300
Zr67       Zr  0.39373074  0.52093518  0.12961985     1.88900
O68         O  0.41852120  0.54861137  0.02305415    -0.72900
O69         O  0.30369122  0.42704277  0.08744575    -0.52200
O70         O  0.32095962  0.52847341  0.12715542    -0.96900
O71         O  0.42154683  0.58477255  0.15383217    -0.54100
O72         O  0.38140940  0.56697309  0.07645335    -0.73500
C73         C  0.39451085  0.57251919  0.04145719     0.98900
O74         O  0.46413102  0.47166542  0.96797349    -0.62300
O75         O  0.57758493  0.47118345  0.13337049    -0.57100
O76         O  0.51198234  0.51102308  0.02165047    -0.93800
O77         O  0.54137922  0.52856695  0.08042935    -0.92200
O78         O  0.56236726  0.38079558  0.09460156    -0.92500
O79         O  0.52101066  0.36537574  0.02747614    -0.91300
C80         C  0.54010235  0.52754681  0.04266847     1.17700
H81         H  0.51981124  0.41532433  0.16343853     0.33700
H82         H  0.43336912  0.39737132  0.02723096     0.44500
H83         H  0.46237707  0.55085548  0.08881001     0.38000
H84         H  0.35703876  0.45175776  0.16147148     0.34500
H85         H  0.45142298  0.30731134  0.08367866     0.26300
H86         H  0.29862152  0.44020068  0.11341786     0.32300
H87         H  0.31325537  0.52066888  0.09973891     0.38200
H88         H  0.56821533  0.35206244  0.09847630     0.32600
H89         H  0.58368091  0.46328211  0.10572031     0.31500
H90         H  0.55344045  0.56089557  0.16032155     0.33200
H91         H  0.43205076  0.57947702  0.18061766     0.32100
H92         H  0.51358794  0.38701296  0.00934046     0.36100
H93         H  0.47114812  0.49841736  0.95793562     0.28900
H94         H  0.40900433  0.41189017  0.26167839     0.33100
H95         H  0.37852853  0.52311242  0.21227618     0.36000
H96         H  0.59349297  0.49598258  0.13841152     0.28600
H97         H  0.48976220  0.45669519  0.96849838     0.41400
H98         H  0.37495338  0.32560408  0.08065106     0.31500
H99         H  0.44612801  0.32623087  0.04215740     0.39100
H100        H  0.39795535  0.60229881  0.15816481     0.31000
H101        H  0.30094768  0.44884076  0.06832277     0.31000
H102        H  0.38435091  0.44811263  0.24529269     0.31300
C103        C  0.46254409  0.16856533  0.74121359     0.80500
N104        N  0.45278821  0.13397800  0.72124917    -0.77800
C105        C  0.48115835  0.11486112  0.69913819     0.82900
N106        N  0.51887319  0.13026977  0.69691796    -0.77800
C107        C  0.52869353  0.16504957  0.71618626     0.83000
N108        N  0.50018309  0.18404837  0.73803033    -0.79500
C109        C  0.41597977  0.74208977  0.47336432     0.80500
N110        N  0.37715216  0.73006330  0.47597415    -0.77800
C111        C  0.35085090  0.74891295  0.49996555     0.82900
N112        N  0.36381330  0.78066793  0.52228377    -0.77800
C113        C  0.40273878  0.79295089  0.52075591     0.83000
N114        N  0.42905524  0.77374020  0.49623695    -0.79500
C115        C  0.54339478  0.82984567  0.79255993     0.80500
N116        N  0.57085304  0.85375582  0.81187776    -0.77800
C117        C  0.58682276  0.88600992  0.79395605     0.82900
N118        N  0.57467680  0.89481517  0.75699775    -0.77800
C119        C  0.54683798  0.87186408  0.73744365     0.83000
N120        N  0.53112918  0.83945821  0.75538198    -0.79500
C121        C  0.63835630  0.79806489  0.54860258     0.80500
N122        N  0.60353772  0.81710660  0.55855024    -0.77800
C123        C  0.59312612  0.85211908  0.54175640     0.82900
N124        N  0.61790918  0.86823468  0.51488015    -0.77800
C125        C  0.65289219  0.85008364  0.50438093     0.83000
N126        N  0.66304260  0.81492183  0.52152190    -0.79500
C127        C  0.34317646  0.09576106  0.43952402     0.80500
N128        N  0.35661699  0.07840921  0.47306314    -0.77800
C129        C  0.33937342  0.04421368  0.48612511     0.82900
N130        N  0.30864761  0.02686687  0.46509250    -0.77800
C131        C  0.29415868  0.04425906  0.43203637     0.83000
N132        N  0.31199843  0.07834765  0.41935184    -0.79500
C133        C  0.24856173  0.10322336  0.66406968     0.80500
N134        N  0.22390548  0.08773673  0.69176315    -0.77800
C135        C  0.23406258  0.05376530  0.71117886     0.82900
N136        N  0.26910734  0.03504863  0.70201054    -0.77800
C137        C  0.29404173  0.05023297  0.67455807     0.83000
N138        N  0.28354930  0.08405637  0.65580058    -0.79500
Zr139      Zr  0.41627661  0.02816629  0.60456266     2.17500
O140        O  0.42962688  0.09599601  0.58254547    -0.51100
O141        O  0.35299942  0.04437528  0.63665694    -0.74300
O142        O  0.37737694  0.04359165  0.54540907    -0.81000
O143        O  0.49499577  0.04795499  0.68450957    -0.82800
O144        O  0.35771795  0.98415901  0.51676893    -0.78400
O145        O  0.44225406  0.07704276  0.65309228    -0.90100
O146        O  0.33596997  0.99369494  0.67702485    -0.76000
O147        O  0.37162397  0.97224859  0.60439354    -0.85500
O148        O  0.42585628  0.99576160  0.66567944    -0.85200
O149        O  0.43799994  0.98689335  0.54951938    -0.72000
O150        O  0.48643207  0.01041513  0.60596922    -0.84100
Zr151      Zr  0.47263719  0.87806012  0.61418944     2.26400
Zr152      Zr  0.39310015  0.93079205  0.55048827     2.06300
Zr153      Zr  0.49507329  0.97745400  0.66702292     2.10000
Zr154      Zr  0.38240201  0.93914535  0.66493663     1.78800
O155        O  0.56444144  0.00086287  0.66434664    -0.92900
O156        O  0.31742196  0.90898977  0.64797714    -0.40700
O157        O  0.45165337  0.92002220  0.66872615    -0.77300
O158        O  0.40238076  0.89603185  0.61116620    -0.96000
O159        O  0.46208201  0.91022339  0.55279788    -0.89300
O160        O  0.51685304  0.93453218  0.61424641    -0.92200
C161        C  0.33018434  0.02822376  0.66227788     1.01600
C162        C  0.47190046  0.07760366  0.67765099     1.14500
C163        C  0.35861228  0.02270768  0.51863291     1.05300
O164        O  0.32269895  0.91074832  0.55341510    -0.94300
O165        O  0.39254283  0.86040344  0.53365790    -0.90100
O166        O  0.44310418  0.82951927  0.56694671    -0.83200
C167        C  0.41397278  0.82990352  0.54176286     1.11900
O168        O  0.51940211  0.02415650  0.51291493    -0.96300
Zr169      Zr  0.50666214  0.96587556  0.55291992     1.88900
O170        O  0.53489473  0.85900091  0.58128219    -0.72900
O171        O  0.39565971  0.92302460  0.47887564    -0.52200
O172        O  0.50275728  0.95227849  0.48203965    -0.96900
O173        O  0.57286297  0.99521446  0.56597978    -0.54100
O174        O  0.55184944  0.90958085  0.54079623    -0.73500
C175        C  0.55741766  0.87470973  0.55516801     0.98900
O176        O  0.46389096  0.80913689  0.63510649    -0.62300
O177        O  0.49251423  0.98326088  0.73880301    -0.57100
O178        O  0.50644103  0.86610436  0.67816717    -0.93800
O179        O  0.53278288  0.92614322  0.69857009    -0.92200
O180        O  0.38257047  0.95072157  0.73618950    -0.92500
O181        O  0.36975004  0.88098646  0.70514608    -0.91300
C182        C  0.52796778  0.88836015  0.70190090     1.17700
H183        H  0.41931054  0.01330242  0.68780851     0.33700
H184        H  0.38584848  0.87204120  0.61116881     0.44500
H185        H  0.54455739  0.92719909  0.61845754     0.38000
H186        H  0.43523836  0.00081034  0.52496504     0.34500
H187        H  0.30171538  0.91098521  0.67262417     0.26300
H188        H  0.41819237  0.90437680  0.47368374     0.32300
H189        H  0.49523835  0.92357676  0.47931072     0.38200
H190        H  0.40665613  0.96745996  0.74191602     0.32600
H191        H  0.51856589  0.99560954  0.74680851     0.31500
H192        H  0.57414603  0.00069593  0.69204096     0.33200
H193        H  0.58744158  0.97513354  0.58160004     0.32100
H194        H  0.37788716  0.85772823  0.68838639     0.36100
H195        H  0.49144682  0.79869004  0.63895231     0.28900
H196        H  0.40302480  0.10914205  0.58107827     0.33100
H197        H  0.51386222  0.04746557  0.53068313     0.36000
H198        H  0.47237292  0.00431550  0.74459119     0.28600
H199        H  0.45240082  0.81120599  0.66192679     0.41400
H200        H  0.31633670  0.89965009  0.52671232     0.31500
H201        H  0.30441098  0.92839677  0.63036021     0.39100
H202        H  0.56799617  0.01777452  0.58484687     0.31000
H203        H  0.37118970  0.90746411  0.47144230     0.31000
H204        H  0.43838064  0.09281891  0.55479719     0.31300
C205        C  0.98956296  0.15731667  0.97662368     0.80500
N206        N  0.02250814  0.17567882  0.99339220    -0.77800
C207        C  0.04454337  0.15760051  0.02176818     0.82900
N208        N  0.03278648  0.12113323  0.03375302    -0.77800
C209        C  0.00018586  0.10222663  0.01765798     0.83000
N210        N  0.97830997  0.12037955  0.98911125    -0.79500
C211        C  0.13155208  0.88387942  0.23307166     0.80500
N212        N  0.09387876  0.88978206  0.21866344    -0.77800
C213        C  0.08157259  0.87024681  0.18496015     0.82900
N214        N  0.10714342  0.84534526  0.16541093    -0.77800
C215        C  0.14469238  0.83903717  0.17961047     0.83000
N216        N  0.15655102  0.85840831  0.21341807    -0.79500
C217        C  0.84716030  0.99826416  0.33172723     0.80500
N218        N  0.86570203  0.03257189  0.34503240    -0.77800
C219        C  0.89209423  0.05258245  0.32207155     0.82900
N220        N  0.89958240  0.03792220  0.28520900    -0.77800
C221        C  0.88142201  0.00366490  0.27181084     0.83000
N222        N  0.85556717  0.98381657  0.29502529    -0.79500
C223        C  0.88194157  0.74786761  0.24504971     0.80500
N224        N  0.89425272  0.78257713  0.22835505    -0.77800
C225        C  0.87185394  0.79943103  0.19945878     0.82900
N226        N  0.83732803  0.78123559  0.18692341    -0.77800
C227        C  0.82438726  0.74690555  0.20326924     0.83000
N228        N  0.84711697  0.73020132  0.23211444    -0.79500
C229        C  0.75937696  0.04845006  0.97110758     0.80500
N230        N  0.73380231  0.07157262  0.99298319    -0.77800
C231        C  0.74325820  0.08355635  0.03044908     0.82900
N232        N  0.77891186  0.07185494  0.04612826    -0.77800
C233        C  0.80498393  0.04919096  0.02475000     0.83000
N234        N  0.79498359  0.03718796  0.98728766    -0.79500
C235        C  0.03597933  0.90710755  0.88180791     0.80500
N236        N  0.02648055  0.91962981  0.91894309    -0.77800
C237        C  0.99807705  0.89981297  0.93940741     0.82900
N238        N  0.97865453  0.86769220  0.92278401    -0.77800
C239        C  0.98741152  0.85505122  0.88553994     0.83000
N240        N  0.01622494  0.87484552  0.86523045    -0.79500
Zr241      Zr  0.92876653  0.97877603  0.03417972     2.17500
O242        O  0.90378363  0.97046535  0.96663793    -0.51100
O243        O  0.95999610  0.04281137  0.01852136    -0.74300
O244        O  0.86686884  0.01528043  0.02242559    -0.81000
O245        O  0.99785762  0.89135202  0.00745004    -0.82800
O246        O  0.84084613  0.03274380  0.08221148    -0.78400
O247        O  0.96728614  0.94614985  0.98212557    -0.90100
O248        O  0.00402871  0.05725265  0.06849063    -0.76000
O249        O  0.93253297  0.02143345  0.09140375    -0.85500
O250        O  0.99365735  0.96836080  0.06234573    -0.85200
O251        O  0.87502950  0.95569455  0.07524959    -0.72000
O252        O  0.93190767  0.90875650  0.04885402    -0.84100
Zr253      Zr  0.94737343  0.91958194  0.17793373     2.26400
Zr254      Zr  0.87962782  0.99888717  0.13267445     2.06300
Zr255      Zr  0.99637690  0.89897814  0.07839138     2.10000
Zr256      Zr  0.99688487  0.00994028  0.12007193     1.78800
O257        O  0.99837597  0.82714526  0.06326563    -0.92900
O258        O  0.99130845  0.07646700  0.15107450    -0.40700
O259        O  0.00071344  0.94109906  0.13623063    -0.77300
O260        O  0.94437078  0.98980313  0.16282753    -0.96000
O261        O  0.88256501  0.92948975  0.14934652    -0.89300
O262        O  0.94464824  0.87610375  0.12096620    -0.92200
C263        C  0.98714144  0.06481908  0.03548577     1.01600
C264        C  0.98737208  0.91351279  0.97887053     1.14500
C265        C  0.84030818  0.03223138  0.04428551     1.05300
O266        O  0.87747569  0.06986848  0.15124839    -0.94300
O267        O  0.87430775  0.00595077  0.20349394    -0.90100
O268        O  0.91481267  0.95855837  0.23005255    -0.83200
C269        C  0.89025809  0.98802733  0.23265630     1.11900
O270        O  0.83744124  0.87520031  0.03425138    -0.96300
Zr271      Zr  0.88031907  0.88681714  0.09205995     1.88900
O272        O  0.91450833  0.85641639  0.19412123    -0.72900
O273        O  0.80944638  0.98754473  0.14946295    -0.52200
O274        O  0.80887213  0.88655400  0.10705922    -0.96900
O275        O  0.89336850  0.82233355  0.05931822    -0.54100
O276        O  0.86963033  0.84123307  0.14513510    -0.73500
C277        C  0.88624897  0.83476622  0.17857371     0.98900
O278        O  0.96454708  0.90984688  0.24723143    -0.62300
O279        O  0.06512351  0.90874546  0.05617538    -0.57100
O280        O  0.01671639  0.89820106  0.18770403    -0.93800
O281        O  0.03995020  0.87326099  0.12929372    -0.92200
O282        O  0.06770298  0.00597826  0.10268137    -0.92500
O283        O  0.03815597  0.01892886  0.17938496    -0.91300
C284        C  0.04331623  0.88036395  0.16650103     1.17700
H285        H  0.01495354  0.97530438  0.04384016     0.33700
H286        H  0.94786279  0.00662902  0.18629187     0.44500
H287        H  0.94925847  0.84819180  0.12726821     0.38000
H288        H  0.84906047  0.95783063  0.06247692     0.34500
H289        H  0.97246501  0.09115508  0.13394780     0.26300
H290        H  0.80074713  0.01306111  0.16221028     0.32300
H291        H  0.79994610  0.91436238  0.10266735     0.38200
H292        H  0.07848621  0.98372201  0.11834719     0.32600
H293        H  0.08045654  0.91787201  0.07992585     0.31500
H294        H  0.01531314  0.81539064  0.08412187     0.33200
H295        H  0.90914481  0.80696729  0.07864285     0.32100
H296        H  0.02926671  0.99729086  0.19684462     0.36100
H297        H  0.97404537  0.88182672  0.24884615     0.28900
H298        H  0.89915672  0.99783844  0.95691994     0.33100
H299        H  0.85198841  0.88802548  0.01249897     0.36000
H300        H  0.07498936  0.88128643  0.05039676     0.28600
H301        H  0.98866786  0.92667762  0.25275209     0.41400
H302        H  0.89108048  0.08366697  0.12951257     0.31500
H303        H  0.97610150  0.07244291  0.17564043     0.39100
H304        H  0.91272221  0.82839605  0.03822565     0.31000
H305        H  0.79474201  0.98638771  0.12393810     0.31000
H306        H  0.87670063  0.95841413  0.96918412     0.31300
C307        C  0.14766027  0.59336920  0.63571104     0.80500
N308        N  0.11406358  0.57192377  0.62605306    -0.77800
C309        C  0.09507099  0.55053569  0.65403141     0.82900
N310        N  0.10992697  0.55017073  0.69143322    -0.77800
C311        C  0.14416040  0.57064260  0.70113751     0.83000
N312        N  0.16259667  0.59204120  0.67312195    -0.79500
C313        C  0.73516888  0.30950655  0.57117098     0.80500
N314        N  0.72569080  0.30818070  0.53214002    -0.77800
C315        C  0.74848293  0.32762170  0.50546738     0.82900
N316        N  0.78127351  0.34837405  0.51841508    -0.77800
C317        C  0.79098740  0.35024041  0.55729891     0.83000
N318        N  0.76785790  0.33105626  0.58376724    -0.79500
C319        C  0.83680216  0.63114623  0.74403491     0.80500
N320        N  0.85599745  0.59758905  0.73111007    -0.77800
C321        C  0.83684547  0.57015870  0.70720594     0.82900
N322        N  0.79813117  0.57686282  0.69600371    -0.77800
C323        C  0.77840756  0.61049860  0.70879444     0.83000
N324        N  0.79831485  0.63777416  0.73234696    -0.79500
C325        C  0.04550153  0.28000558  0.45851067     0.80500
N326        N  0.08340246  0.27082193  0.47020718    -0.77800
C327        C  0.10361916  0.29286004  0.49836171     0.82900
N328        N  0.08494132  0.32526850  0.51521158    -0.77800
C329        C  0.04705950  0.33532717  0.50324234     0.83000
N330        N  0.02753973  0.31223056  0.47552363    -0.79500
C331        C  0.78169475  0.37627736  0.78180401     0.80500
N332        N  0.79594309  0.34338779  0.80048716    -0.77800
C333        C  0.82857359  0.32336470  0.78661342     0.82900
N334        N  0.84718519  0.33700425  0.75405482    -0.77800
C335        C  0.83349712  0.36962219  0.73522659     0.83000
N336        N  0.80084461  0.38928756  0.74928412    -0.79500
C337        C  0.09747511  0.51581892  0.42194528     0.80500
N338        N  0.07833709  0.50581837  0.45566423    -0.77800
C339        C  0.04536542  0.52606621  0.46802680     0.82900
N340        N  0.03136496  0.55674511  0.44626194    -0.77800
C341        C  0.05016333  0.56765535  0.41258994     0.83000
N342        N  0.08309600  0.54672119  0.40033696    -0.79500
Zr343      Zr  0.01884985  0.45115987  0.58416448     2.17500
O344        O  0.08631353  0.43052803  0.60357080    -0.51100
O345        O  0.03835545  0.48586326  0.52450125    -0.74300
O346        O  0.04204510  0.39366866  0.54469485    -0.81000
O347        O  0.02743544  0.53357305  0.66396692    -0.82800
O348        O  0.98533369  0.36142759  0.52289213    -0.78400
O349        O  0.06213178  0.50195278  0.61461644    -0.90100
O350        O  0.98562726  0.52391120  0.50488977    -0.76000
O351        O  0.96570781  0.44656686  0.53691132    -0.85500
O352        O  0.98107379  0.51138282  0.59130598    -0.85200
O353        O  0.98100646  0.39282008  0.60231899    -0.72000
O354        O  0.99579742  0.45304871  0.65141730    -0.84100
Zr355      Zr  0.86468749  0.45213556  0.62779513     2.26400
Zr356      Zr  0.92706044  0.38972499  0.55515977     2.06300
Zr357      Zr  0.95741352  0.51322152  0.65769526     2.10000
Zr358      Zr  0.92783730  0.50645278  0.54444895     1.78800
O359        O  0.97397022  0.51472185  0.72783858    -0.92900
O360        O  0.90798669  0.48833980  0.47692931    -0.40700
O361        O  0.90322534  0.51010073  0.61073941    -0.77300
O362        O  0.88773807  0.44949925  0.56072114    -0.96000
O363        O  0.90218356  0.39177209  0.62093412    -0.89300
O364        O  0.91799425  0.45660820  0.67527616    -0.92200
C365        C  0.02189140  0.51138110  0.50160374     1.01600
C366        C  0.05926089  0.52714093  0.64365022     1.14500
C367        C  0.02366399  0.36587222  0.52467742     1.05300
O368        O  0.91039405  0.38736577  0.48503330    -0.94300
O369        O  0.85798908  0.36801474  0.54994283    -0.90100
O370        O  0.82223519  0.39911633  0.59881842    -0.83200
C371        C  0.82597000  0.37374942  0.56992032     1.11900
O372        O  0.01792221  0.36724296  0.69087433    -0.96300
Zr373      Zr  0.95510783  0.39624572  0.66792596     1.88900
O374        O  0.84265002  0.41572430  0.68454827    -0.72900
O375        O  0.92449588  0.31699754  0.56085814    -0.52200
O376        O  0.95505094  0.32351042  0.65928428    -0.96900
O377        O  0.97020142  0.40882623  0.73766527    -0.54100
O378        O  0.89437312  0.37485607  0.70110045    -0.73500
C379        C  0.85812057  0.38750496  0.70458962     0.98900
O380        O  0.79883271  0.47487442  0.60569514    -0.62300
O381        O  0.96069608  0.58571997  0.65090983    -0.57100
O382        O  0.84246165  0.51000232  0.66792352    -0.93800
O383        O  0.89906253  0.54286162  0.68924235    -0.92200
O384        O  0.93101852  0.57938944  0.54886916    -0.92500
O385        O  0.86479378  0.53749102  0.52502754    -0.91300
C386        C  0.86072098  0.53841755  0.68741592     1.17700
H387        H  0.99722098  0.53474236  0.58622354     0.33700
H388        H  0.86488357  0.44778890  0.54280064     0.44500
H389        H  0.90788071  0.46010689  0.70172929     0.38000
H390        H  0.99737728  0.36897646  0.60032740     0.34500
H391        H  0.91428929  0.51236845  0.46151083     0.26300
H392        H  0.95091376  0.30965330  0.57220093     0.32300
H393        H  0.95194406  0.31323023  0.68625005     0.38200
H394        H  0.93612100  0.58782993  0.52155562     0.32600
H395        H  0.93516901  0.59282297  0.63759242     0.31500
H396        H  0.97037428  0.54307516  0.73638697     0.33200
H397        H  0.94463441  0.41805697  0.74947013     0.32100
H398        H  0.84998616  0.54144697  0.55002406     0.36100
H399        H  0.78177924  0.47504416  0.62949823     0.28900
H400        H  0.10222925  0.42981901  0.57900726     0.33100
H401        H  0.03896504  0.38050883  0.67527495     0.36000
H402        H  0.95817546  0.59693196  0.67809760     0.28600
H403        H  0.80258611  0.50351023  0.59953214     0.41400
H404        H  0.89538035  0.36191133  0.48071910     0.31500
H405        H  0.92797893  0.46819582  0.46810821     0.39100
H406        H  0.98767704  0.43294752  0.73824125     0.31000
H407        H  0.90521937  0.31220547  0.58235551     0.31000
H408        H  0.08351863  0.40213412  0.61099836     0.31300
C409        C  0.89433831  0.72647811  0.77091662    -0.14100
C410        C  0.90658136  0.71906735  0.80973238     0.16300
C411        C  0.89456484  0.68303949  0.82724948     0.02600
C412        C  0.87192471  0.65455888  0.80533435    -0.12600
C413        C  0.85942075  0.66221259  0.76669611    -0.03700
C414        C  0.87039232  0.69873033  0.74957353     0.01800
C415        C  0.92883612  0.75104365  0.83204564     0.08700
N416        N  0.90451386  0.67517940  0.86736167     0.65000
H417        H  0.86347031  0.62663707  0.81877909     0.17900
N418        N  0.85776614  0.70791948  0.71043996     0.75500
H419        H  0.90264514  0.75443890  0.75745514     0.09500
C420        C  0.96924192  0.76029478  0.82373451     0.03200
C421        C  0.98752575  0.79432339  0.84128115    -0.05600
C422        C  0.96636829  0.81957305  0.86746918    -0.24000
C423        C  0.92588603  0.80990315  0.87612334     0.12400
C424        C  0.90767594  0.77587169  0.85842559    -0.13100
N425        N  0.99230658  0.73520319  0.79785720     0.64100
H426        H  0.01868120  0.80076036  0.83464148     0.11900
N427        N  0.90189900  0.83552441  0.90069542     0.60700
H428        H  0.87627886  0.76961777  0.86418619     0.08100
O429        O  0.88244553  0.70453613  0.68251036    -0.40800
O430        O  0.82590596  0.72765337  0.70547931    -0.39900
O431        O  0.87865228  0.68196934  0.89368514    -0.39900
O432        O  0.93373504  0.65249229  0.87477464    -0.37600
O433        O  0.88124357  0.86259198  0.88499896    -0.38500
O434        O  0.89323354  0.82458163  0.93497013    -0.34700
O435        O  0.00091119  0.74739030  0.76400544    -0.36100
O436        O  0.01215247  0.70673746  0.81208720    -0.40400
C437        C  0.01575363  0.63273889  0.32690461    -0.14100
C438        C  0.99060812  0.66014575  0.34652866     0.16300
C439        C  0.98820417  0.65904725  0.38799154     0.02600
C440        C  0.00897590  0.62961124  0.40862987    -0.12600
C441        C  0.03265439  0.60068234  0.38896539    -0.03700
C442        C  0.03679485  0.60328416  0.34749672     0.01800
C443        C  0.96324910  0.68562281  0.32289871     0.08700
N444        N  0.96476683  0.68762721  0.40971803     0.65000
H445        H  0.00600739  0.62916770  0.44042878     0.17900
N446        N  0.06025763  0.57525797  0.32516086     0.75500
H447        H  0.01742668  0.63274981  0.29499391     0.09500
C448        C  0.97769168  0.71299913  0.29523753     0.03200
C449        C  0.95059611  0.73368965  0.27131327    -0.05600
C450        C  0.90886395  0.72705755  0.27336285    -0.24000
C451        C  0.89448880  0.69931162  0.30097541     0.12400
C452        C  0.92163015  0.67931959  0.32546223    -0.13100
N453        N  0.01978726  0.72003362  0.29075204     0.64100
H454        H  0.96259426  0.75426918  0.25010913     0.11900
N455        N  0.85255758  0.69087842  0.30481438     0.60700
H456        H  0.91008919  0.65759159  0.34579634     0.08100
O457        O  0.09033709  0.58809761  0.30680912    -0.40800
O458        O  0.04441359  0.54237964  0.31404192    -0.39900
O459        O  0.93127217  0.67700861  0.42331557    -0.39900
O460        O  0.98178327  0.71873374  0.42389727    -0.37600
O461        O  0.83779558  0.66057175  0.28684271    -0.38500
O462        O  0.83384460  0.70611188  0.33368735    -0.34700
O463        O  0.03752806  0.70459743  0.26136647    -0.36100
O464        O  0.03597634  0.74931021  0.30917142    -0.40400
C465        C  0.95987542  0.22551844  0.40234710    -0.14100
C466        C  0.97783520  0.18841646  0.39379218     0.16300
C467        C  0.01890728  0.18335815  0.40317346     0.02600
C468        C  0.04053176  0.21441700  0.42205276    -0.12600
C469        C  0.02221129  0.25095699  0.43282095    -0.03700
C470        C  0.98135487  0.25660077  0.42178413     0.01800
C471        C  0.95387467  0.15568064  0.37416444     0.08700
N472        N  0.03883777  0.14611552  0.39561882     0.65000
H473        H  0.07168784  0.20891163  0.42968670     0.17900
N474        N  0.96069122  0.29319337  0.43039368     0.75500
H475        H  0.92881428  0.23045946  0.39396581     0.09500
C476        C  0.91776173  0.14114133  0.39024918     0.03200
C477        C  0.89791611  0.10830757  0.37223908    -0.05600
C478        C  0.91282965  0.08947462  0.33782524    -0.24000
C479        C  0.94773719  0.10579376  0.32043610     0.12400
C480        C  0.96768101  0.13843559  0.33872292    -0.13100
N481        N  0.90127227  0.15847809  0.42548740     0.64100
H482        H  0.87076730  0.09726390  0.38577881     0.11900
N483        N  0.96425372  0.08930623  0.28484550     0.60700
H484        H  0.99447752  0.15025665  0.32515769     0.08100
O485        O  0.93693601  0.29469625  0.45920668    -0.40800
O486        O  0.95744827  0.31883936  0.40381550    -0.39900
O487        O  0.06374009  0.14361075  0.36779899    -0.39900
O488        O  0.03995572  0.12049437  0.42236566    -0.37600
O489        O  0.95687642  0.10619330  0.25269079    -0.38500
O490        O  0.99389048  0.06593337  0.28695070    -0.34700
O491        O  0.87182443  0.18202830  0.42278276    -0.36100
O492        O  0.90835077  0.14222738  0.45801894    -0.40400
C493        C  0.85471056  0.24946355  0.86738704    -0.14100
C494        C  0.89672429  0.24816208  0.86388655     0.16300
C495        C  0.91503071  0.26798451  0.83250494     0.02600
C496        C  0.89164480  0.29025925  0.80677504    -0.12600
C497        C  0.84980145  0.29368506  0.81128749    -0.03700
C498        C  0.83108907  0.27186376  0.84143958     0.01800
C499        C  0.92058833  0.22518261  0.89267724     0.08700
N500        N  0.95726761  0.26539770  0.82561515     0.65000
H501        H  0.90700828  0.30602068  0.78371101     0.17900
N502        N  0.78836848  0.27102342  0.84563310     0.75500
H503        H  0.84018790  0.23326526  0.89069418     0.09500
C504        C  0.94713832  0.24428319  0.91986814     0.03200
C505        C  0.96907381  0.22141850  0.94648034    -0.05600
C506        C  0.96497245  0.17942966  0.94731292    -0.24000
C507        C  0.93752370  0.16045567  0.92052368     0.12400
C508        C  0.91584881  0.18343466  0.89355815    -0.13100
N509        N  0.95083333  0.28699935  0.92234523     0.64100
H510        H  0.98889124  0.23705398  0.96729514     0.11900
N511        N  0.93188905  0.11795884  0.91929931     0.60700
H512        H  0.89529255  0.16850527  0.87292407     0.08100
O513        O  0.76873441  0.24229136  0.82984289    -0.40800
O514        O  0.77258016  0.29121817  0.87334829    -0.39900
O515        O  0.96983164  0.23828613  0.80226936    -0.39900
O516        O  0.97873838  0.29627807  0.83163060    -0.37600
O517        O  0.90108701  0.10326492  0.93505804    -0.38500
O518        O  0.95083232  0.09712807  0.89411538    -0.34700
O519        O  0.92645630  0.30657047  0.94356394    -0.36100
O520        O  0.98394804  0.30304938  0.91374777    -0.40400
C521        C  0.18785512  0.26664442  0.57066993    -0.14100
C522        C  0.19600119  0.22715382  0.55777969     0.16300
C523        C  0.18050607  0.21376451  0.52091839     0.02600
C524        C  0.15434472  0.23820601  0.49988827    -0.12600
C525        C  0.14143380  0.27557358  0.51532356    -0.03700
C526        C  0.16108365  0.29103609  0.54976713     0.01800
C527        C  0.21270997  0.19838917  0.58644410     0.08700
N528        N  0.18647363  0.17359033  0.50661342     0.65000
H529        H  0.14125728  0.22576381  0.47285963     0.17900
N530        N  0.15347977  0.33061762  0.56486197     0.75500
H531        H  0.20032132  0.27769378  0.59855183     0.09500
C532        C  0.24872276  0.17705172  0.58040092     0.03200
C533        C  0.26010715  0.14747400  0.60685638    -0.05600
C534        C  0.23632961  0.13799191  0.63962823    -0.24000
C535        C  0.20100451  0.16068128  0.64635360     0.12400
C536        C  0.18978957  0.19038229  0.61991521    -0.13100
N537        N  0.27470685  0.18529407  0.54821738     0.64100
H538        H  0.28769704  0.13135100  0.60095285     0.11900
N539        N  0.17548980  0.15382364  0.67919899     0.60700
H540        H  0.16206284  0.20662483  0.62499895     0.08100
O541        O  0.17747574  0.35848306  0.55641590    -0.40800
O542        O  0.13086691  0.33518101  0.59430936    -0.39900
O543        O  0.16148618  0.14691789  0.51589002    -0.39900
O544        O  0.20771903  0.16784041  0.47635515    -0.37600
O545        O  0.17945134  0.17584114  0.70982122    -0.38500
O546        O  0.14287535  0.13498800  0.67345739    -0.34700
O547        O  0.30304388  0.21012743  0.55385145    -0.36100
O548        O  0.27779611  0.15942075  0.52061904    -0.40400
C549        C  0.12306521  0.97405575  0.85048123    -0.14100
C550        C  0.11533477  0.97691084  0.80984420     0.16300
C551        C  0.08150809  0.95660390  0.79346639     0.02600
C552        C  0.05674311  0.93381502  0.81752793    -0.12600
C553        C  0.06450072  0.93069109  0.85804396    -0.03700
C554        C  0.09810838  0.95138638  0.87465589     0.01800
C555        C  0.14529320  0.99776162  0.78508108     0.08700
N556        N  0.07242300  0.95725608  0.75225491     0.65000
H557        H  0.03098859  0.91851117  0.80422323     0.17900
N558        N  0.10863837  0.94828664  0.91544563     0.75500
H559        H  0.14921184  0.98899386  0.86344438     0.09500
C560        C  0.13581007  0.03166218  0.76278161     0.03200
C561        C  0.16536945  0.04953751  0.73980074    -0.05600
C562        C  0.20500143  0.03510747  0.73876461    -0.24000
C563        C  0.21490605  0.00219768  0.76271192     0.12400
C564        C  0.18504234  0.98381089  0.78504852    -0.13100
N565        N  0.09707889  0.04990462  0.76450464     0.64100
H566        H  0.15690146  0.07512682  0.72265032     0.11900
N567        N  0.25512926  0.98757531  0.76586622     0.60700
H568        H  0.19307375  0.95838913  0.80277143     0.08100
O569        O  0.10237364  0.97777072  0.93860426    -0.40800
O570        O  0.13335429  0.92174899  0.92555286    -0.39900
O571        O  0.08692241  0.93023281  0.72997335    -0.39900
O572        O  0.04108250  0.97514254  0.74118947    -0.37600
O573        O  0.27754125  0.00103484  0.79342350    -0.38500
O574        O  0.26419499  0.95493914  0.74858995    -0.34700
O575        O  0.09081412  0.07621612  0.79110830    -0.36100
O576        O  0.07570517  0.05008165  0.73356304    -0.40400
C577        C  0.15713950  0.96955424  0.30539641    -0.14100
C578        C  0.19046475  0.95339485  0.32482055     0.16300
C579        C  0.20073237  0.91299791  0.31745909     0.02600
C580        C  0.17938858  0.89034307  0.28909509    -0.12600
C581        C  0.14746975  0.90699942  0.26773706    -0.03700
C582        C  0.13525336  0.94664869  0.27731726     0.01800
C583        C  0.21436816  0.97888344  0.35262245     0.08700
N584        N  0.23408761  0.89506740  0.33704431     0.65000
H585        H  0.18879790  0.85976758  0.28287914     0.17900
N586        N  0.10221484  0.96495851  0.25761401     0.75500
H587        H  0.14845427  0.00033434  0.31164601     0.09500
C588        C  0.23688581  0.01181559  0.33965252     0.03200
C589        C  0.26153141  0.03322634  0.36632701    -0.05600
C590        C  0.26377830  0.02326835  0.40635208    -0.24000
C591        C  0.23894065  0.99188207  0.41969593     0.12400
C592        C  0.21500586  0.96977232  0.39270571    -0.13100
N593        N  0.23607188  0.02333587  0.29932014     0.64100
H594        H  0.27997785  0.05702048  0.35505495     0.11900
N595        N  0.23640391  0.98280890  0.46053990     0.60700
H596        H  0.19658100  0.94540853  0.40315817     0.08100
O597        O  0.10902238  0.98700959  0.22869649    -0.40800
O598        O  0.06883456  0.96758048  0.27489693    -0.39900
O599        O  0.22779690  0.87409446  0.36685898    -0.39900
O600        O  0.26706926  0.89163963  0.31918162    -0.37600
O601        O  0.20925604  0.99920262  0.48102155    -0.38500
O602        O  0.25310402  0.95154355  0.47283509    -0.34700
O603        O  0.21582748  0.05362395  0.28994398    -0.36100
O604        O  0.26337690  0.01098294  0.27650830    -0.40400
C605        C  0.69719879  0.70891033  0.58850176    -0.14100
C606        C  0.66880751  0.69123635  0.61283147     0.16300
C607        C  0.63000754  0.70789747  0.61489138     0.02600
C608        C  0.62053001  0.74155016  0.59261647    -0.12600
C609        C  0.64951944  0.76037891  0.56910955    -0.03700
C610        C  0.68839923  0.74323445  0.56734086     0.01800
C611        C  0.68381038  0.66078885  0.64047511     0.08700
N612        N  0.60018018  0.69187821  0.64020454     0.65000
H613        H  0.59039696  0.75356451  0.59477687     0.17900
N614        N  0.72053821  0.76107099  0.54641664     0.75500
H615        H  0.72771821  0.69759416  0.58802930     0.09500
C616        C  0.70444116  0.62644245  0.62647536     0.03200
C617        C  0.73197674  0.60734792  0.65104628    -0.05600
C618        C  0.73993450  0.62210222  0.68951932    -0.24000
C619        C  0.71497947  0.65280006  0.70516326     0.12400
C620        C  0.68745530  0.67195149  0.68048400    -0.13100
N621        N  0.70033936  0.61254204  0.58641448     0.64100
H622        H  0.74971648  0.58310507  0.63850027     0.11900
N623        N  0.71801009  0.66599814  0.74551748     0.60700
H624        H  0.67170978  0.69808981  0.69186053     0.08100
O625        O  0.73697175  0.74052873  0.51932169    -0.40800
O626        O  0.74035334  0.78911936  0.56321014    -0.39900
O627        O  0.59370533  0.70930069  0.67299558    -0.39900
O628        O  0.57369177  0.66854938  0.62563793    -0.37600
O629        O  0.73731498  0.69774637  0.75409366    -0.38500
O630        O  0.69257149  0.65325301  0.76966328    -0.34700
O631        O  0.72853666  0.61884809  0.56264080    -0.36100
O632        O  0.67507580  0.58517876  0.57822376    -0.40400
C633        C  0.76475695  0.92831775  0.36799831    -0.14100
C634        C  0.76235323  0.94044770  0.40769828     0.16300
C635        C  0.78853340  0.97057690  0.42257085     0.02600
C636        C  0.81565925  0.98888646  0.39727553    -0.12600
C637        C  0.81802539  0.97720375  0.35718431    -0.03700
C638        C  0.79231976  0.94594278  0.34275055     0.01800
C639        C  0.73467425  0.91840088  0.43327305     0.08700
N640        N  0.78965368  0.98143859  0.46359770     0.65000
H641        H  0.83555784  0.01190383  0.40952021     0.17900
N642        N  0.79339226  0.93148497  0.30272588     0.75500
H643        H  0.74526578  0.90450461  0.35657313     0.09500
C644        C  0.69947904  0.93567132  0.44861437     0.03200
C645        C  0.67328141  0.91247754  0.47075492    -0.05600
C646        C  0.68099096  0.87170731  0.47794368    -0.24000
C647        C  0.71602730  0.85438611  0.46127107     0.12400
C648        C  0.74233676  0.87792093  0.43953693    -0.13100
N649        N  0.68882510  0.97613203  0.44065085     0.64100
H650        H  0.64671532  0.92696891  0.48250227     0.11900
N651        N  0.72586533  0.81313959  0.46534365     0.60700
H652        H  0.76892283  0.86421512  0.42683673     0.08100
O653        O  0.76758635  0.94395239  0.27848734    -0.40800
O654        O  0.81205396  0.89947621  0.29468164    -0.39900
O655        O  0.81402403  0.96372139  0.48588561    -0.39900
O656        O  0.77587261  0.01501641  0.47465916    -0.37600
O657        O  0.70883828  0.78754877  0.44269823    -0.38500
O658        O  0.75972787  0.80485046  0.48004330    -0.34700
O659        O  0.66577756  0.98272770  0.41178584    -0.36100
O660        O  0.69214358  0.00241139  0.46792037    -0.40400
C661        C  0.63576667  0.95748555  0.86886395    -0.14100
C662        C  0.67134977  0.96747903  0.84942893     0.16300
C663        C  0.67936060  0.94968003  0.81223151     0.02600
C664        C  0.65151006  0.92282275  0.79493750    -0.12600
C665        C  0.61597198  0.91276411  0.81445526    -0.03700
C666        C  0.60801522  0.93054814  0.85172745     0.01800
C667        C  0.70082968  0.99336238  0.87090674     0.08700
N668        N  0.71518406  0.95900183  0.79137037     0.65000
H669        H  0.65769901  0.90968103  0.76606499     0.17900
N670        N  0.57107733  0.92346134  0.87164898     0.75500
H671        H  0.62961035  0.97050314  0.89779684     0.09500
C672        C  0.69052763  0.03236569  0.88394290     0.03200
C673        C  0.71297642  0.05139721  0.91393286    -0.05600
C674        C  0.74522487  0.03196592  0.93226012    -0.24000
C675        C  0.75840546  0.99478085  0.91591520     0.12400
C676        C  0.73602871  0.97590403  0.88544432    -0.13100
N677        N  0.65563395  0.05198756  0.86912043     0.64100
H678        H  0.70321351  0.08058360  0.92473799     0.11900
N679        N  0.79239792  0.97420238  0.93143612     0.60700
H680        H  0.74432093  0.94595029  0.87547835     0.08100
O681        O  0.54259878  0.94792269  0.86752244    -0.40800
O682        O  0.57114832  0.90105346  0.90106911    -0.39900
O683        O  0.74293989  0.93337938  0.78930198    -0.39900
O684        O  0.71465590  0.98724909  0.76729823    -0.37600
O685        O  0.78703022  0.94791388  0.95703707    -0.38500
O686        O  0.82465208  0.97401959  0.91210832    -0.34700
O687        O  0.62446206  0.05348729  0.89006103    -0.36100
O688        O  0.65967083  0.07674100  0.84187698    -0.40400
C689        C  0.18777817  0.63898934  0.54114663    -0.14100
C690        C  0.21465328  0.66760605  0.55753295     0.16300
C691        C  0.21681656  0.67299223  0.59883843     0.02600
C692        C  0.19334117  0.64954173  0.62284214    -0.12600
C693        C  0.16795021  0.61940097  0.60710176    -0.03700
C694        C  0.16439858  0.61477654  0.56551738     0.01800
C695        C  0.24269638  0.68993985  0.53238390     0.08700
N696        N  0.24494215  0.70019735  0.61729594     0.65000
H697        H  0.19618833  0.65447888  0.65445678     0.17900
N698        N  0.13878791  0.58489227  0.54748580     0.75500
H699        H  0.18561808  0.63480975  0.50939401     0.09500
C700        C  0.27143932  0.66959069  0.50918282     0.03200
C701        C  0.30466402  0.69051542  0.49542713    -0.05600
C702        C  0.31029707  0.73143511  0.50494944    -0.24000
C703        C  0.27895357  0.75276911  0.52360372     0.12400
C704        C  0.24535182  0.73187284  0.53699929    -0.13100
N705        N  0.26997870  0.62704649  0.50307469     0.64100
H706        H  0.32783247  0.67358146  0.48023339     0.11900
N707        N  0.28163421  0.79516454  0.53068036     0.60700
H708        H  0.22244917  0.74807409  0.55331695     0.08100
O709        O  0.15375570  0.55200858  0.53585655    -0.40800
O710        O  0.10471981  0.59495983  0.53446548    -0.39900
O711        O  0.23242906  0.73298918  0.63182264    -0.39900
O712        O  0.27875232  0.68719406  0.62813521    -0.37600
O713        O  0.28544100  0.80904066  0.56549923    -0.38500
O714        O  0.28379943  0.81850106  0.50202138    -0.34700
O715        O  0.25839611  0.61287107  0.47000459    -0.36100
O716        O  0.28982822  0.60506602  0.52584468    -0.40400
C717        C  0.63443566  0.18769311  0.67956650    -0.14100
C718        C  0.63488280  0.22956520  0.68342383     0.16300
C719        C  0.60317865  0.24908841  0.70320927     0.02600
C720        C  0.57055328  0.22684150  0.71649152    -0.12600
C721        C  0.56789661  0.18521717  0.70919205    -0.03700
C722        C  0.60116474  0.16537280  0.69169542     0.01800
C723        C  0.66136763  0.25192683  0.65703632     0.08700
N724        N  0.60180663  0.29183860  0.70684751     0.65000
H725        H  0.54577745  0.24300217  0.72988926     0.17900
N726        N  0.60093734  0.12309892  0.68367747     0.75500
H727        H  0.65839734  0.17253497  0.66374889     0.09500
C728        C  0.70297655  0.25681938  0.66363030     0.03200
C729        C  0.72640578  0.27598329  0.63545229    -0.05600
C730        C  0.70925105  0.28916869  0.59998520    -0.24000
C731        C  0.66761306  0.28279102  0.59313354     0.12400
C732        C  0.64427398  0.26488896  0.62180646    -0.13100
N733        N  0.72195851  0.24224527  0.69836485     0.64100
H734        H  0.75835130  0.27980986  0.64103842     0.11900
N735        N  0.64814372  0.29410548  0.55740217     0.60700
H736        H  0.61244798  0.26010323  0.61604477     0.08100
O737        O  0.61929092  0.10043475  0.70695377    -0.40800
O738        O  0.59252355  0.11026545  0.64922292    -0.39900
O739        O  0.58017828  0.31099167  0.68309636    -0.39900
O740        O  0.61257542  0.30861964  0.73902423    -0.37600
O741        O  0.63898165  0.26708518  0.53212377    -0.38500
O742        O  0.63008858  0.32727111  0.55656291    -0.34700
O743        O  0.73959521  0.20882755  0.69667592    -0.36100
O744        O  0.73018106  0.26655864  0.72643273    -0.40400
C745        C  0.43546189  0.24039654  0.34198081    -0.14100
C746        C  0.44709636  0.20196159  0.35368660     0.16300
C747        C  0.47981726  0.18338276  0.33450682     0.02600
C748        C  0.49895679  0.20255802  0.30368228    -0.12600
C749        C  0.48523370  0.23931425  0.28940383    -0.03700
C750        C  0.45366115  0.25899070  0.30992746     0.01800
C751        C  0.42000305  0.17919412  0.37985248     0.08700
N752        N  0.49115872  0.14305704  0.34223718     0.65000
H753        H  0.52310086  0.18665108  0.28903745     0.17900
N754        N  0.43795757  0.29655811  0.29763327     0.75500
H755        H  0.41023179  0.25501593  0.35627265     0.09500
C756        C  0.43300722  0.16083931  0.41478398     0.03200
C757        C  0.40668086  0.13569379  0.43492351    -0.05600
C758        C  0.36710934  0.12840918  0.42131307    -0.24000
C759        C  0.35339887  0.14946808  0.38798444     0.12400
C760        C  0.37988390  0.17408901  0.36769406    -0.13100
N761        N  0.47229828  0.16796416  0.43095330     0.64100
H762        H  0.41794633  0.12090869  0.46085357     0.11900
N763        N  0.31290325  0.14629145  0.37378138     0.60700
H764        H  0.36915004  0.18854022  0.34132648     0.08100
O765        O  0.44933304  0.32839629  0.31537128    -0.40800
O766        O  0.40612866  0.29692778  0.27707339    -0.39900
O767        O  0.47252883  0.11487529  0.32439295    -0.39900
O768        O  0.52619209  0.13661583  0.35515300    -0.37600
O769        O  0.28760024  0.17179149  0.38579927    -0.38500
O770        O  0.30609056  0.12740908  0.34167794    -0.34700
O771        O  0.47724163  0.19702311  0.45508937    -0.36100
O772        O  0.49697997  0.13935559  0.43153961    -0.40400
C773        C  0.65153458  0.14288072  0.06676315    -0.14100
C774        C  0.66243163  0.15069027  0.10623773     0.16300
C775        C  0.69902654  0.13577655  0.12062229     0.02600
C776        C  0.72455883  0.11441050  0.09533833    -0.12600
C777        C  0.71429440  0.10670216  0.05545719    -0.03700
C778        C  0.67670077  0.12083683  0.04138083     0.01800
C779        C  0.63492769  0.17421538  0.13183232     0.08700
N780        N  0.71117473  0.14264555  0.16072870     0.65000
H781        H  0.75270874  0.10377067  0.10741608     0.17900
N782        N  0.66313655  0.11308278  0.00177765     0.75500
H783        H  0.62302390  0.15373145  0.05564183     0.09500
C784        C  0.62830077  0.21512875  0.12540600     0.03200
C785        C  0.59971125  0.23602510  0.14758298    -0.05600
C786        C  0.57693769  0.21706020  0.17655855    -0.24000
C787        C  0.58441454  0.17600533  0.18371886     0.12400
C788        C  0.61324716  0.15509611  0.16130188    -0.13100
N789        N  0.65067872  0.23610425  0.09659715     0.64100
H790        H  0.59541593  0.26754547  0.14185555     0.11900
N791        N  0.56226286  0.15451104  0.21234808     0.60700
H792        H  0.61798972  0.12346888  0.16622468     0.08100
O793        O  0.66548251  0.14064430  0.97705636    -0.40800
O794        O  0.63965701  0.08387349  0.99475531    -0.39900
O795        O  0.70814570  0.11444816  0.18467717    -0.36300
O796        O  0.73405301  0.17194840  0.16921486    -0.37600
O797        O  0.53193353  0.13416258  0.20127923    -0.38500
O798        O  0.57892487  0.14696618  0.24490346    -0.34700
O799        O  0.63392188  0.24459101  0.06434329    -0.36100
O800        O  0.68246000  0.25439872  0.10708409    -0.40400
C801        C  0.19490013  0.26978372  0.09510270    -0.14100
C802        C  0.16711376  0.24443026  0.11301122     0.16300
C803        C  0.17025416  0.23871518  0.15409845     0.02600
C804        C  0.19960941  0.25941091  0.17639199    -0.12600
C805        C  0.22658668  0.28588768  0.15881642    -0.03700
C806        C  0.22437986  0.29054093  0.11741175     0.01800
C807        C  0.13649823  0.22271285  0.08818812     0.08700
N808        N  0.14318176  0.21290605  0.17405062     0.65000
H809        H  0.20086730  0.25505152  0.20796125     0.17900
N810        N  0.25045446  0.31738694  0.09753283     0.75500
H811        H  0.19383247  0.27347580  0.06345595     0.09500
C812        C  0.10965881  0.24283862  0.06296522     0.03200
C813        C  0.08096637  0.22099536  0.04066246    -0.05600
C814        C  0.07832287  0.17902631  0.04258716    -0.24000
C815        C  0.10660020  0.15886212  0.06651513     0.12400
C816        C  0.13508683  0.18078135  0.08884066    -0.13100
N817        N  0.11022866  0.28553223  0.06037489     0.64100
H818        H  0.05991568  0.23729751  0.02257175     0.11900
N819        N  0.10771663  0.11609896  0.06801707     0.60700
H820        H  0.15665599  0.16473753  0.10657458     0.08100
O821        O  0.23756062  0.35154842  0.08861618    -0.40800
O822        O  0.28079442  0.30343657  0.07991419    -0.39900
O823        O  0.15567813  0.17943886  0.18553834    -0.39900
O824        O  0.11196846  0.22767435  0.18938758    -0.37600
O825        O  0.13163860  0.09710294  0.04580679    -0.38500
O826        O  0.09371467  0.09907361  0.09779351    -0.34700
O827        O  0.12600898  0.30116080  0.03068984    -0.36100
O828        O  0.08618223  0.30600843  0.08113223    -0.40400
C829        C  0.18154917  0.47137939  0.35917436    -0.14100
C830        C  0.17788558  0.43042595  0.36727046     0.16300
C831        C  0.15086022  0.41871675  0.39680864     0.02600
C832        C  0.12638816  0.44748497  0.41523492    -0.12600
C833        C  0.12850980  0.48823101  0.40561698    -0.03700
C834        C  0.15782433  0.50027517  0.37841362     0.01800
C835        C  0.20176541  0.40148675  0.34299524     0.08700
N836        N  0.14861256  0.37828521  0.40969241     0.65000
H837        H  0.10489774  0.43742979  0.43674761     0.17900
N838        N  0.16517769  0.54160342  0.37091712     0.75500
H839        H  0.20288107  0.48108419  0.33733307     0.09500
C840        C  0.18314049  0.37213177  0.31827137     0.03200
C841        C  0.20566621  0.35162626  0.28971157    -0.05600
C842        C  0.24646135  0.36075719  0.28327825    -0.24000
C843        C  0.26579296  0.38812075  0.30996436     0.12400
C844        C  0.24340432  0.40780713  0.33953230    -0.13100
N845        N  0.14060442  0.36584072  0.31817002     0.64100
H846        H  0.18969505  0.33061250  0.27030643     0.11900
N847        N  0.30759089  0.39750934  0.30700834     0.60700
H848        H  0.25827453  0.42998079  0.35858090     0.08100
O849        O  0.15807458  0.55437937  0.33687941    -0.40800
O850        O  0.18953945  0.56083262  0.39309085    -0.39900
O851        O  0.17272897  0.36747698  0.43629370    -0.39900
O852        O  0.11598650  0.35920124  0.40498328    -0.37600
O853        O  0.31788778  0.42975825  0.29113302    -0.38500
O854        O  0.33221009  0.38046692  0.32955993    -0.34700
O855        O  0.11884772  0.38786628  0.29714760    -0.36100
O856        O  0.12719566  0.33200002  0.32769077    -0.40400
C857        C  0.41230529  0.72260547  0.88587388    -0.14100
C858        C  0.45269670  0.71259923  0.87987238     0.16300
C859        C  0.46911204  0.68064601  0.90157123     0.02600
C860        C  0.44583125  0.66170398  0.92999337    -0.12600
C861        C  0.40569524  0.67271186  0.93662129    -0.03700
C862        C  0.38834942  0.70188218  0.91229022     0.01800
C863        C  0.47773249  0.73877002  0.85454991     0.08700
N864        N  0.50931075  0.66693771  0.89543274     0.65000
H865        H  0.45980544  0.63893221  0.94770784     0.17900
N866        N  0.34614206  0.70960483  0.91221802     0.75500
H867        H  0.39903584  0.74736768  0.87059973     0.09500
C868        C  0.46402352  0.75306772  0.81775109     0.03200
C869        C  0.48673081  0.78141175  0.79780611    -0.05600
C870        C  0.52314439  0.79661236  0.81336476    -0.24000
C871        C  0.53737145  0.78152901  0.84957717     0.12400
C872        C  0.51436167  0.75364554  0.86983021    -0.13100
N873        N  0.42673509  0.74014561  0.80022855     0.64100
H874        H  0.47484152  0.79234862  0.77024523     0.11900
N875        N  0.57500220  0.79390829  0.86662542     0.60700
H876        H  0.52474846  0.74487256  0.89866136     0.08100
O877        O  0.32306123  0.68431821  0.89525365    -0.40800
O878        O  0.33436657  0.74534987  0.91624983    -0.39900
O879        O  0.53558489  0.67396801  0.92184974    -0.39900
O880        O  0.51513119  0.63872108  0.87068640    -0.37600
O881        O  0.57503459  0.81784227  0.89602859    -0.38500
O882        O  0.60551128  0.77232432  0.86060495    -0.34700
O883        O  0.39777368  0.76449500  0.79956359    -0.36100
O884        O  0.42700300  0.71135105  0.77538931    -0.40400
C885        C  0.27930336  0.75623014  0.06701827    -0.14100
C886        C  0.25968908  0.73801934  0.09824313     0.16300
C887        C  0.26634354  0.69715489  0.10495133     0.02600
C888        C  0.29309566  0.67565122  0.08103715    -0.12600
C889        C  0.31320783  0.69367329  0.04954729    -0.03700
C890        C  0.30545828  0.73463621  0.04244010     0.01800
C891        C  0.22956921  0.76165140  0.12042318     0.08700
N892        N  0.24446695  0.67625543  0.13419525     0.65000
H893        H  0.29726286  0.64413914  0.08685160     0.17900
N894        N  0.32223582  0.75490950  0.00986485     0.75500
H895        H  0.27359348  0.78752419  0.06114641     0.09500
C896        C  0.23509290  0.77314518  0.16036412     0.03200
C897        C  0.20664507  0.79762790  0.17904655    -0.05600
C898        C  0.17306948  0.81211804  0.15839445    -0.24000
C899        C  0.16830166  0.80131837  0.11795099     0.12400
C900        C  0.19616121  0.77588742  0.09970346    -0.13100
N901        N  0.27068162  0.76281122  0.18165123     0.64100
H902        H  0.21150565  0.80600311  0.20981992     0.11900
N903        N  0.13722841  0.81792363  0.09408515     0.60700
H904        H  0.19235539  0.76814711  0.06862735     0.08100
O905        O  0.35591432  0.77209921  0.01428679    -0.40800
O906        O  0.29850182  0.76694587  0.98348068    -0.39900
O907        O  0.21220205  0.65856115  0.12417928    -0.39900
O908        O  0.26270951  0.66547551  0.16491998    -0.37600
O909        O  0.14522948  0.84796084  0.07358666    -0.38500
O910        O  0.10661060  0.79689021  0.08545600    -0.34700
O911        O  0.30013023  0.78682151  0.18189722    -0.36100
O912        O  0.26824941  0.73755081  0.20862068    -0.40400
C913        C  0.73275322  0.71936109  0.13945910    -0.14100
C914        C  0.73267643  0.67757913  0.14231208     0.16300
C915        C  0.75964562  0.65939811  0.16848316     0.02600
C916        C  0.78762629  0.68288577  0.18977994    -0.12600
C917        C  0.78955489  0.72464652  0.18546892    -0.03700
C918        C  0.76061519  0.74307893  0.16088867     0.01800
C919        C  0.70749713  0.65341575  0.11453106     0.08700
N920        N  0.76046198  0.61688178  0.17230533     0.65000
H921        H  0.80927977  0.66785169  0.20824979     0.17900
N922        N  0.75891430  0.78564703  0.15716712     0.75500
H923        H  0.71173005  0.73356386  0.11962793     0.09500
C924        C  0.66918786  0.63952606  0.12475594     0.03200
C925        C  0.64608073  0.61772789  0.09703023    -0.05600
C926        C  0.66030067  0.60894860  0.05866929    -0.24000
C927        C  0.69895574  0.62335731  0.04853682     0.12400
C928        C  0.72191365  0.64543530  0.07645804    -0.13100
N929        N  0.65307626  0.64740737  0.16307946     0.64100
H930        H  0.61678676  0.60731199  0.10616340     0.11900
N931        N  0.71571768  0.61607090  0.01039945     0.60700
H932        H  0.75135289  0.65645984  0.06835159     0.08100
O933        O  0.73602080  0.80565878  0.17959282    -0.40800
O934        O  0.77128880  0.80117072  0.12591607    -0.39900
O935        O  0.78627732  0.59677483  0.15337488    -0.39900
O936        O  0.74369503  0.60155293  0.20160800    -0.37600
O937        O  0.71209201  0.64251431  0.98463863    -0.38500
O938        O  0.74301485  0.59013373  0.00656725    -0.34700
O939        O  0.62698547  0.67448798  0.16734679    -0.36100
O940        O  0.65624635  0.62101477  0.18893636    -0.40400
C941        C  0.64013222  0.47181912  0.88535318    -0.14100
C942        C  0.68178623  0.47503263  0.88092914     0.16300
C943        C  0.70338153  0.50350235  0.90417609     0.02600
C944        C  0.68343113  0.52677920  0.93248112    -0.12600
C945        C  0.64198362  0.52219045  0.93886777    -0.03700
C946        C  0.61999992  0.49507010  0.91384721     0.01800
C947        C  0.70236260  0.44886551  0.85177137     0.08700
N948        N  0.74601841  0.50771383  0.90104899     0.65000
H949        H  0.70124165  0.54730211  0.95072644     0.17900
N950        N  0.57737427  0.49062856  0.91652462     0.75500
H951        H  0.62309912  0.45099992  0.86660199     0.09500
C952        C  0.70240906  0.40682579  0.85495757     0.03200
C953        C  0.72633841  0.38351985  0.82981925    -0.05600
C954        C  0.75032814  0.40122614  0.80110793    -0.24000
C955        C  0.74698378  0.44312640  0.79543174     0.12400
C956        C  0.72336811  0.46639563  0.82101173    -0.13100
N957        N  0.68018304  0.38742108  0.88494322     0.64100
H958        H  0.72733616  0.35142661  0.83396533     0.11900
N959        N  0.76849929  0.46309780  0.76526578     0.60700
H960        H  0.72226071  0.49859285  0.81747249     0.08100
O961        O  0.56315408  0.45908322  0.93088186    -0.40800
O962        O  0.55510656  0.51170795  0.89506220    -0.39900
O963        O  0.76020894  0.53829771  0.88485628    -0.39900
O964        O  0.76844797  0.48767148  0.92331208    -0.37600
O965        O  0.75008069  0.47224840  0.73406709    -0.38500
O966        O  0.80122844  0.48062768  0.77393996    -0.34700
O967        O  0.64695835  0.37101282  0.87598375    -0.36100
O968        O  0.69807742  0.37757391  0.91619236    -0.40400
C969        C  0.24384692  0.53067546  0.86898746    -0.14100
C970        C  0.21947312  0.51354996  0.83904931     0.16300
C971        C  0.22050802  0.47182881  0.83194223     0.02600
C972        C  0.24548449  0.44803335  0.85458642    -0.12600
C973        C  0.27108828  0.46474931  0.88390436    -0.03700
C974        C  0.26962768  0.50678717  0.89148739     0.01800
C975        C  0.19848642  0.53928902  0.81077776     0.08700
N976        N  0.19952749  0.45347212  0.79916073     0.65000
H977        H  0.24574187  0.41613442  0.84773480     0.17900
N978        N  0.29509378  0.52613822  0.92040035     0.75500
H979        H  0.24397908  0.56292041  0.87387713     0.09500
C980        C  0.15638645  0.53837540  0.80625302     0.03200
C981        C  0.13888804  0.55158073  0.77129033    -0.05600
C982        C  0.16267976  0.56655631  0.74087600    -0.24000
C983        C  0.20430612  0.57307442  0.74833839     0.12400
C984        C  0.22175929  0.55885957  0.78293568    -0.13100
N985        N  0.13106527  0.52388752  0.83665022     0.64100
H986        H  0.10663212  0.54853065  0.76736532     0.11900
N987        N  0.23000153  0.59135250  0.72031291     0.60700
H988        H  0.25414418  0.56055839  0.78671766     0.08100
O989        O  0.28053485  0.53656312  0.95332105    -0.40800
O990        O  0.32772452  0.54176145  0.90965617    -0.39900
O991        O  0.21727182  0.44996095  0.76651191    -0.39900
O992        O  0.16947958  0.43140423  0.80550374    -0.37600
O993        O  0.25200357  0.56939979  0.69876704    -0.38500
O994        O  0.23862903  0.62809478  0.72473211    -0.34700
O995        O  0.11584745  0.54887726  0.86069675    -0.36100
O996        O  0.11529346  0.48954284  0.83269891    -0.40400
C997        C  0.37699556  0.27362881  0.87624653    -0.14100
C998        C  0.36089393  0.26853508  0.83810772     0.16300
C999        C  0.32792756  0.29200285  0.82679153     0.02600
C1000       C  0.31529912  0.32361550  0.85140831    -0.12600
C1001       C  0.33471573  0.33221932  0.88770732    -0.03700
C1002       C  0.36372512  0.30465997  0.90147709     0.01800
C1003       C  0.38195460  0.24191809  0.80958873     0.08700
N1004       N  0.30691111  0.28418290  0.79046016     0.65000
H1005       H  0.29124408  0.34254020  0.84098955     0.17900
N1006       N  0.38059694  0.30782415  0.94039763     0.75500
H1007       H  0.40130564  0.25453280  0.88584869     0.09500
C1008       C  0.40594316  0.25831618  0.77984501     0.03200
C1009       C  0.43035270  0.23328846  0.75686271    -0.05600
C1010       C  0.43212798  0.19198464  0.76321758    -0.24000
C1011       C  0.40751813  0.17529710  0.79236676     0.12400
C1012       C  0.38262414  0.20039533  0.81527138    -0.13100
N1013       N  0.40900135  0.30069460  0.77512080     0.64100
H1014       H  0.44939263  0.24657342  0.73485696     0.11900
N1015       N  0.41014100  0.13383116  0.80158757     0.60700
H1016       H  0.36513348  0.18771280  0.83877233     0.08100
O1017       O  0.41477391  0.32384717  0.94540373    -0.40800
O1018       O  0.36686185  0.28570706  0.96684099    -0.39900
O1019       O  0.27707278  0.26066958  0.79034460    -0.39900
O1020       O  0.31036814  0.30852665  0.76279666    -0.37600
O1021       O  0.43584959  0.12294514  0.82670346    -0.38500
O1022       O  0.38121923  0.11066201  0.79255023    -0.34700
O1023       O  0.43705850  0.31966679  0.79271997    -0.36100
O1024       O  0.39209111  0.31627346  0.74581787    -0.40400
C1025       C  0.73274420  0.36938000  0.40345105    -0.14100
C1026       C  0.69103705  0.36408864  0.39972790     0.16300
C1027       C  0.67147436  0.33786069  0.42557474     0.02600
C1028       C  0.69278361  0.32188523  0.45695130    -0.12600
C1029       C  0.73282562  0.33302104  0.46480743    -0.03700
C1030       C  0.75369530  0.35496086  0.43606958     0.01800
C1031       C  0.66791133  0.38914035  0.37204358     0.08700
N1032       N  0.62922378  0.32995900  0.42304153     0.65000
H1033       H  0.67634912  0.30375249  0.47733514     0.17900
N1034       N  0.79546091  0.36466803  0.44012238     0.75500
H1035       H  0.74883554  0.38689281  0.38219308     0.09500
C1036       C  0.67290819  0.43132645  0.37199514     0.03200
C1037       C  0.64535048  0.45470568  0.35188751    -0.05600
C1038       C  0.61254222  0.43728523  0.33166380    -0.24000
C1039       C  0.60969422  0.39504864  0.32837970     0.12400
C1040       C  0.63763669  0.37146680  0.34821818    -0.13100
N1041       N  0.70440325  0.45143263  0.39373435     0.64100
H1042       H  0.64905340  0.48703357  0.35327704     0.11900
N1043       N  0.57726273  0.37549909  0.30759067     0.60700
H1044       H  0.63453532  0.33913796  0.34633265     0.08100
O1045       O  0.80550660  0.39947408  0.45207406    -0.40800
O1046       O  0.82071303  0.34356978  0.42148173    -0.39900
O1047       O  0.61738020  0.29612316  0.40994947    -0.39900
O1048       O  0.60562774  0.35104032  0.44374069    -0.37600
O1049       O  0.54653291  0.36513257  0.32646055    -0.38500
O1050       O  0.58370159  0.35949435  0.27412748    -0.34700
O1051       O  0.73494599  0.46330871  0.37541876    -0.36100
O1052       O  0.69669139  0.46714532  0.42704074    -0.40400
C1053       C  0.50662005  0.69671127  0.41990102    -0.14100
C1054       C  0.48706092  0.66784928  0.39565828     0.16300
C1055       C  0.44482351  0.66591170  0.39517007     0.02600
C1056       C  0.42307017  0.69191409  0.41926130    -0.12600
C1057       C  0.44214798  0.71970541  0.44525668    -0.03700
C1058       C  0.48458813  0.72288001  0.44450183     0.01800
C1059       C  0.51059938  0.63644729  0.37527225     0.08700
N1060       N  0.42332811  0.63550396  0.37306955     0.65000
H1061       H  0.39062734  0.68881762  0.41840398     0.17900
N1062       N  0.50591803  0.75165881  0.46868595     0.75500
H1063       H  0.53918758  0.69816773  0.42048987     0.09500
C1064       C  0.51088209  0.63232550  0.33388287     0.03200
C1065       C  0.52598244  0.59733467  0.31626791    -0.05600
C1066       C  0.54123868  0.56623032  0.33918940    -0.24000
C1067       C  0.54458949  0.57229919  0.38054628     0.12400
C1068       C  0.52891757  0.60716771  0.39814373    -0.13100
N1069       N  0.49604258  0.66327962  0.30932276     0.64100
H1070       H  0.52472097  0.59409498  0.28438297     0.11900
N1071       N  0.56111716  0.54251120  0.40546422     0.60700
H1072       H  0.52911917  0.61041171  0.43005325     0.08100
O1073       O  0.51613570  0.78457460  0.45407958    -0.40800
O1074       O  0.52302756  0.74048124  0.49989131    -0.39900
O1075       O  0.41521103  0.60298371  0.38957867    -0.39900
O1076       O  0.40215858  0.64567267  0.34393855    -0.37600
O1077       O  0.53768343  0.51904712  0.42283972    -0.38500
O1078       O  0.59682762  0.54658320  0.41789096    -0.34700
O1079       O  0.52025644  0.68974481  0.29795813    -0.36100
O1080       O  0.46359518  0.65766220  0.29037869    -0.40400
loop_ 
_geom_bond_atom_site_label_1 
_geom_bond_atom_site_label_2 
_geom_bond_distance 
_geom_bond_site_symmetry_2 
_ccdc_geom_bond_type 
C1            N2   1.357       .  A
C1            N6   1.362       .  A
C1         C1038   1.473       .  S
N2            C3   1.355       .  A
C3            N4   1.352       .  A
C3           C60   1.447       .  S
N4            C5   1.354       .  A
C5            N6   1.355       .  A
C5         C1066   1.479       .  S
C7            N8   1.358       .  A
C7           N12   1.361       .  A
C7          C973   1.490       .  S
N8            C9   1.358       .  A
C9           N10   1.356       .  A
C9           C65   1.444       .  S
N10          C11   1.351       .  A
C11          N12   1.356       .  A
C11        C1001   1.489       .  S
C13          N14   1.358   1_554  A
C13          N18   1.353       .  A
C13         C926   1.495       .  S
N14          C15   1.368       .  A
C15          N16   1.361       .  A
C15         C945   1.489       .  S
N16          C17   1.356   1_556  A
C17          N18   1.352       .  A
C17          C80   1.462       .  S
C19          N20   1.361   1_554  A
C19          N24   1.356       .  A
C19         C889   1.493       .  S
N20          C21   1.366       .  A
C21          N22   1.367       .  A
C21         C861   1.489       .  S
N22          C23   1.360   1_556  A
C23          N24   1.353       .  A
C23          C73   1.479       .  S
C25          N26   1.355       .  A
C25          N30   1.351       .  A
C25         C805   1.486       .  S
N26          C27   1.360       .  A
C27          N28   1.364       .  A
C27         C842   1.498       .  S
N28          C29   1.364       .  A
C29          N30   1.359       .  A
C29          C61   1.464       .  S
C31          N32   1.356       .  A
C31          N36   1.355       .  A
C31         C786   1.491       .  S
N32          C33   1.366       .  A
C33          N34   1.363       .  A
C33         C749   1.495       .  S
N34          C35   1.361       .  A
C35          N36   1.355       .  A
C35          C59   1.471       .  S
Zr37         O38   2.439       .  S
Zr37         O39   2.432       .  S
Zr37         O40   2.445       .  S
Zr37         O43   2.424       .  S
Zr37         O45   2.381       .  S
Zr37         O46   2.385       .  S
Zr37         O47   2.403       .  S
Zr37         O48   2.406       .  S
O38          H94   0.990       .  S
O38         H102   0.990       .  S
O39          C59   1.283       .  A
O40          C61   1.284       .  A
O41         Zr51   2.410       .  S
O41          C60   1.280       .  A
O42         Zr50   2.405       .  S
O42          C61   1.280       .  A
O43          C60   1.282       .  A
O44         Zr52   2.427       .  S
O44          C59   1.284       .  A
O45         Zr50   2.380       .  S
O45         Zr52   2.376       .  S
O46         Zr51   2.381       .  S
O46         Zr52   2.370       .  S
O46          H81   0.965       .  S
O47         Zr50   2.386       .  S
O47         Zr67   2.397       .  S
O47          H84   0.967       .  S
O48         Zr51   2.386       .  S
O48         Zr67   2.395       .  S
Zr49         O74   2.439   1_554  S
Zr49         O68   2.447       .  S
Zr49         O76   2.445       .  S
Zr49         O64   2.436   1_554  S
Zr49         O55   2.406       .  S
Zr49         O56   2.409       .  S
Zr49         O57   2.383       .  S
Zr49         O58   2.382       .  S
Zr50         O69   2.437       .  S
Zr50         O62   2.436       .  S
Zr50         O63   2.389       .  S
Zr50         O56   2.390       .  S
Zr50         O57   2.390       .  S
Zr51         O53   2.435       .  S
Zr51         O75   2.437       .  S
Zr51         O77   2.403       .  S
Zr51         O55   2.391       .  S
Zr51         O58   2.385       .  S
Zr52         O78   2.436       .  S
Zr52         O79   2.435       .  S
Zr52         O54   2.438       .  S
Zr52         O55   2.397       .  S
Zr52         O56   2.394       .  S
O53          H90   0.990       .  S
O54          H85   0.990       .  S
O54          H99   0.990       .  S
O56          H82   0.968       .  S
O57         Zr67   2.373       .  S
O58         Zr67   2.369       .  S
O58          H83   0.965       .  S
O62          H98   0.990       .  S
O63          C65   1.276   1_554  A
O64          C65   1.284       .  A
O66         Zr67   2.436       .  S
O66          H95   0.990       .  S
Zr67         O70   2.435       .  S
Zr67         O71   2.438       .  S
Zr67         O72   2.430       .  S
O68          C73   1.285       .  A
O69          H86   0.990       .  S
O69         H101   0.990       .  S
O70          H87   0.990       .  S
O71          H91   0.990       .  S
O71         H100   0.990       .  S
O72          C73   1.285       .  A
O74          H93   0.990       .  S
O74          H97   0.990       .  S
O75          H89   0.990       .  S
O75          H96   0.990       .  S
O76          C80   1.284       .  A
O77          C80   1.280       .  A
O78          H88   0.990       .  S
O79          H92   0.990       .  S
C103        N104   1.359       .  A
C103        N108   1.358       .  A
C103       C1010   1.477       .  S
N104        C105   1.361       .  A
C105        N106   1.357       .  A
C105        C162   1.455       .  S
N106        C107   1.354       .  A
C107        N108   1.358       .  A
C107        C721   1.488       .  S
C109        N110   1.355       .  A
C109        N114   1.361       .  A
C109       C1057   1.486       .  S
N110        C111   1.347       .  A
C111        N112   1.353       .  A
C111        C702   1.479       .  S
N112        C113   1.358       .  A
C113        N114   1.363       .  A
C113        C167   1.453       .  S
C115        N116   1.362       .  A
C115        N120   1.367       .  A
C115        C870   1.490       .  S
N116        C117   1.357       .  A
C117        N118   1.352       .  A
C117        C665   1.472       .  S
N118        C119   1.356       .  A
C119        N120   1.358       .  A
C119        C182   1.473       .  S
C121        N122   1.364       .  A
C121        N126   1.367       .  A
C121        C609   1.498       .  S
N122        C123   1.357       .  A
C123        N124   1.353       .  A
C123        C175   1.478       .  S
N124        C125   1.360       .  A
C125        N126   1.364       .  A
C125        C646   1.496       .  S
C127        N128   1.361       .  A
C127        N132   1.357       .  A
C127        C758   1.495       .  S
N128        C129   1.360       .  A
C129        N130   1.359       .  A
C129        C163   1.473       .  S
N130        C131   1.360       .  A
C131        N132   1.361       .  A
C131        C590   1.489       .  S
C133        N134   1.362       .  A
C133        N138   1.358       .  A
C133        C534   1.498       .  S
N134        C135   1.367       .  A
C135        N136   1.359       .  A
C135        C562   1.495       .  S
N136        C137   1.358       .  A
C137        N138   1.354       .  A
C137        C161   1.469       .  S
Zr139       O140   2.440       .  S
Zr139       O141   2.434       .  S
Zr139       O142   2.443       .  S
Zr139       O145   2.436       .  S
Zr139       O147   2.378   1_545  S
Zr139       O148   2.380   1_545  S
Zr139       O149   2.409   1_545  S
Zr139       O150   2.410       .  S
O140        H196   0.990       .  S
O140        H204   0.990       .  S
O141        C161   1.285       .  A
O142        C163   1.285       .  A
O143       Zr153   2.410   1_545  S
O143        C162   1.279       .  A
O144       Zr152   2.440       .  S
O144        C163   1.286   1_565  A
O145        C162   1.284       .  A
O146       Zr154   2.421       .  S
O146        C161   1.281   1_565  A
O147       Zr152   2.380       .  S
O147       Zr154   2.380       .  S
O148       Zr153   2.384       .  S
O148       Zr154   2.372       .  S
O148        H183   0.967   1_565  S
O149       Zr152   2.389       .  S
O149       Zr169   2.394       .  S
O149        H186   0.967   1_565  S
O150       Zr153   2.383   1_545  S
O150       Zr169   2.406   1_545  S
Zr151       O176   2.439       .  S
Zr151       O170   2.440       .  S
Zr151       O178   2.476       .  S
Zr151       O166   2.445       .  S
Zr151       O157   2.401       .  S
Zr151       O158   2.416       .  S
Zr151       O159   2.389       .  S
Zr151       O160   2.384       .  S
Zr152       O171   2.437       .  S
Zr152       O164   2.435       .  S
Zr152       O165   2.402       .  S
Zr152       O158   2.404       .  S
Zr152       O159   2.398       .  S
Zr153       O155   2.435   1_565  S
Zr153       O177   2.438       .  S
Zr153       O179   2.394       .  S
Zr153       O157   2.395       .  S
Zr153       O160   2.383       .  S
Zr154       O180   2.436       .  S
Zr154       O181   2.435       .  S
Zr154       O156   2.437       .  S
Zr154       O157   2.395       .  S
Zr154       O158   2.394       .  S
O155        H192   0.990       .  S
O156        H187   0.990       .  S
O156        H201   0.990       .  S
O158        H184   0.969       .  S
O159       Zr169   2.370       .  S
O160       Zr169   2.372       .  S
O160        H185   0.965       .  S
O164        H200   0.990       .  S
O165        C167   1.279       .  A
O166        C167   1.286       .  A
O168       Zr169   2.435   1_545  S
O168        H197   0.990       .  S
Zr169       O172   2.436       .  S
Zr169       O173   2.437       .  S
Zr169       O174   2.439       .  S
O170        C175   1.285       .  A
O171        H188   0.990       .  S
O171        H203   0.990       .  S
O172        H189   0.990       .  S
O173        H193   0.990       .  S
O173        H202   0.990   1_565  S
O174        C175   1.286       .  A
O176        H195   0.990       .  S
O176        H199   0.990       .  S
O177        H191   0.990       .  S
O177        H198   0.990   1_565  S
O178        C182   1.290       .  A
O179        C182   1.277       .  A
O180        H190   0.989       .  S
O181        H194   0.990       .  S
C205        N206   1.365   1_655  A
C205        N210   1.364       .  A
C205        C506   1.492       .  S
N206        C207   1.359   1_556  A
C207        N208   1.349       .  A
C207        C814   1.491       .  S
N208        C209   1.355       .  A
C209        N210   1.361   1_454  A
C209        C263   1.465   1_455  S
C211        N212   1.357       .  A
C211        N216   1.358       .  A
C211        C581   1.482       .  S
N212        C213   1.360       .  A
C213        N214   1.357       .  A
C213        C284   1.457       .  S
N214        C215   1.353       .  A
C215        N216   1.356       .  A
C215        C898   1.484       .  S
C217        N218   1.362   1_565  A
C217        N222   1.355       .  A
C217        C637   1.488       .  S
N218        C219   1.362       .  A
C219        N220   1.356       .  A
C219        C478   1.492       .  S
N220        C221   1.356       .  A
C221        N222   1.353   1_545  A
C221        C269   1.447   1_545  S
C223        N224   1.364       .  A
C223        N228   1.361       .  A
C223        C450   1.493       .  S
N224        C225   1.360       .  A
C225        N226   1.356       .  A
C225        C277   1.470       .  S
N226        C227   1.354       .  A
C227        N228   1.362       .  A
C227        C917   1.488       .  S
C229        N230   1.362       .  A
C229        N234   1.359       .  A
C229        C674   1.486       .  S
N230        C231   1.356   1_556  A
C231        N232   1.358       .  A
C231        C777   1.494       .  S
N232        C233   1.356       .  A
C233        N234   1.360   1_554  A
C233        C265   1.466       .  S
C235        N236   1.357       .  A
C235        N240   1.364       .  A
C235        C553   1.485       .  S
N236        C237   1.356   1_455  A
C237        N238   1.356       .  A
C237        C264   1.451       .  S
N238        C239   1.355       .  A
C239        N240   1.363   1_655  A
C239        C422   1.488       .  S
Zr241       O242   2.437   1_554  S
Zr241       O243   2.443   1_565  S
Zr241       O244   2.431   1_565  S
Zr241       O247   2.428   1_554  S
Zr241       O249   2.379   1_565  S
Zr241       O250   2.382       .  S
Zr241       O251   2.410       .  S
Zr241       O252   2.402       .  S
O242        H298   0.990       .  S
O242        H306   0.990       .  S
O243        C263   1.284       .  A
O244        C265   1.282       .  A
O245       Zr255   2.413       .  S
O245        C264   1.280   1_554  A
O246       Zr254   2.436   1_545  S
O246        C265   1.285       .  A
O247        C264   1.282       .  A
O248       Zr256   2.397   1_455  S
O248        C263   1.279   1_455  A
O249       Zr254   2.388   1_545  S
O249       Zr256   2.379       .  S
O250       Zr255   2.392       .  S
O250       Zr256   2.371   1_565  S
O250        H285   0.981   1_655  S
O251       Zr254   2.396       .  S
O251       Zr271   2.387       .  S
O251        H288   0.966       .  S
O252       Zr255   2.385       .  S
O252       Zr271   2.390       .  S
Zr253       O278   2.442       .  S
Zr253       O272   2.445       .  S
Zr253       O280   2.439   1_655  S
Zr253       O268   2.432       .  S
Zr253       O259   2.396   1_655  S
Zr253       O260   2.412       .  S
Zr253       O261   2.383       .  S
Zr253       O262   2.386       .  S
Zr254       O273   2.437       .  S
Zr254       O266   2.436   1_565  S
Zr254       O267   2.414   1_565  S
Zr254       O260   2.399       .  S
Zr254       O261   2.398       .  S
Zr255       O257   2.438       .  S
Zr255       O279   2.436   1_655  S
Zr255       O281   2.419   1_655  S
Zr255       O259   2.386   1_655  S
Zr255       O262   2.390       .  S
Zr256       O282   2.436   1_655  S
Zr256       O283   2.436   1_655  S
Zr256       O258   2.439       .  S
Zr256       O259   2.377   1_645  S
Zr256       O260   2.384   1_545  S
O257        H294   0.990   1_655  S
O258        H289   0.990       .  S
O258        H303   0.990       .  S
O260        H286   0.968   1_565  S
O261       Zr271   2.379       .  S
O262       Zr271   2.377       .  S
O262        H287   0.973       .  S
O266        H302   0.990       .  S
O267        C269   1.280   1_545  A
O268        C269   1.282       .  A
O270       Zr271   2.435       .  S
O270        H299   0.990       .  S
Zr271       O274   2.434       .  S
Zr271       O275   2.438       .  S
Zr271       O276   2.412       .  S
O272        C277   1.284       .  A
O273        H290   0.990   1_565  S
O273        H305   0.990       .  S
O274        H291   0.989       .  S
O275        H295   0.990       .  S
O275        H304   0.990       .  S
O276        C277   1.280       .  A
O278        H297   0.990       .  S
O278        H301   0.991       .  S
O279        H293   0.990       .  S
O279        H300   0.990       .  S
O280        C284   1.284       .  A
O281        C284   1.281       .  A
O282        H292   0.990   1_545  S
O283        H296   0.990   1_545  S
C307        N308   1.357       .  A
C307        N312   1.360       .  A
C307        C693   1.482       .  S
N308        C309   1.359       .  A
C309        N310   1.357       .  A
C309        C366   1.456       .  S
N310        C311   1.358       .  A
C311        N312   1.352       .  A
C311        C982   1.486       .  S
C313        N314   1.357       .  A
C313        N318   1.360       .  A
C313        C730   1.483       .  S
N314        C315   1.360       .  A
C315        N316   1.353       .  A
C315       C1029   1.484       .  S
N316        C317   1.354       .  A
C317        N318   1.357       .  A
C317        C371   1.455       .  S
C319        N320   1.356       .  A
C319        N324   1.357       .  A
C319        C413   1.474       .  S
N320        C321   1.359       .  A
C321        N322   1.360       .  A
C321        C386   1.477       .  S
N322        C323   1.365       .  A
C323        N324   1.361       .  A
C323        C618   1.488       .  S
C325        N326   1.356       .  A
C325        N330   1.351       .  A
C325        C469   1.495       .  S
N326        C327   1.361       .  A
C327        N328   1.364       .  A
C327        C525   1.501       .  S
N328        C329   1.366       .  A
C329        N330   1.359       .  A
C329        C367   1.467       .  S
C331        N332   1.365       .  A
C331        N336   1.358       .  A
C331        C954   1.484       .  S
N332        C333   1.358       .  A
C333        N334   1.357       .  A
C333        C497   1.488       .  S
N334        C335   1.353       .  A
C335        N336   1.355       .  A
C335        C379   1.465       .  S
C337        N338   1.361       .  A
C337        N342   1.365       .  A
C337        C833   1.487       .  S
N338        C339   1.354       .  A
C339        N340   1.358       .  A
C339        C365   1.478       .  S
N340        C341   1.363       .  A
C341        N342   1.364       .  A
C341        C441   1.495       .  S
Zr343       O344   2.439       .  S
Zr343       O345   2.446       .  S
Zr343       O346   2.442       .  S
Zr343       O349   2.423       .  S
Zr343       O351   2.376   1_455  S
Zr343       O352   2.382   1_455  S
Zr343       O353   2.408   1_455  S
Zr343       O354   2.411   1_455  S
O344        H400   0.990       .  S
O344        H408   0.990       .  S
O345        C365   1.287       .  A
O346        C367   1.284       .  A
O347       Zr357   2.428   1_455  S
O347        C366   1.284       .  A
O348       Zr356   2.418       .  S
O348        C367   1.283   1_655  A
O349        C366   1.282       .  A
O350       Zr358   2.430       .  S
O350        C365   1.283   1_655  A
O351       Zr356   2.383       .  S
O351       Zr358   2.375       .  S
O352       Zr357   2.390       .  S
O352       Zr358   2.370       .  S
O352        H387   0.964       .  S
O353       Zr356   2.392       .  S
O353       Zr373   2.392       .  S
O353        H390   0.967       .  S
O354       Zr357   2.389       .  S
O354       Zr373   2.403       .  S
Zr355       O380   2.438       .  S
Zr355       O374   2.418       .  S
Zr355       O382   2.454       .  S
Zr355       O370   2.439       .  S
Zr355       O361   2.400       .  S
Zr355       O362   2.405       .  S
Zr355       O363   2.380       .  S
Zr355       O364   2.385       .  S
Zr356       O375   2.439       .  S
Zr356       O368   2.435       .  S
Zr356       O369   2.409       .  S
Zr356       O362   2.393       .  S
Zr356       O363   2.384       .  S
Zr357       O359   2.435       .  S
Zr357       O381   2.436       .  S
Zr357       O383   2.426       .  S
Zr357       O361   2.394       .  S
Zr357       O364   2.384       .  S
Zr358       O384   2.435       .  S
Zr358       O385   2.435       .  S
Zr358       O360   2.437       .  S
Zr358       O361   2.399       .  S
Zr358       O362   2.394       .  S
O359        H396   0.990       .  S
O360        H391   0.990       .  S
O360        H405   0.990       .  S
O362        H388   0.969       .  S
O363       Zr373   2.365       .  S
O364       Zr373   2.375       .  S
O364        H389   0.965       .  S
O368        H404   0.990       .  S
O369        C371   1.279       .  A
O370        C371   1.285       .  A
O372       Zr373   2.435   1_455  S
O372        H401   0.990       .  S
Zr373       O376   2.436       .  S
Zr373       O377   2.438       .  S
Zr373       O378   2.433       .  S
O374        C379   1.281       .  A
O375        H392   0.990       .  S
O375        H407   0.990       .  S
O376        H393   0.990       .  S
O377        H397   0.990       .  S
O377        H406   0.990       .  S
O378        C379   1.284       .  A
O380        H399   0.990       .  S
O380        H403   0.990       .  S
O381        H395   0.990       .  S
O381        H402   0.990       .  S
O382        C386   1.288       .  A
O383        C386   1.284       .  A
O384        H394   0.990       .  S
O385        H398   0.990       .  S
C409        C410   1.402       .  A
C409        C414   1.401       .  A
C409        H419   1.084       .  S
C410        C415   1.483       .  S
C410        C411   1.411       .  A
C411        C412   1.403       .  A
C411        N416   1.427       .  S
C412        C413   1.400       .  A
C412        H417   1.084       .  S
C413        C414   1.410       .  A
C414        N418   1.429       .  S
C415        C420   1.410       .  A
C415        C424   1.400       .  A
N416        O431   1.262       .  A
N416        O432   1.262       .  A
N418        O429   1.262       .  A
N418        O430   1.262       .  A
C420        C421   1.402       .  A
C420        N425   1.428       .  S
C421        C422   1.404       .  A
C421        H426   1.084   1_655  S
C422        C423   1.418       .  A
C423        C424   1.403       .  A
C423        N427   1.429       .  S
C424        H428   1.084       .  S
N425        O435   1.262   1_655  A
N425        O436   1.262   1_655  A
N427        O433   1.262       .  A
N427        O434   1.262       .  A
C437        C438   1.401   1_455  A
C437        C442   1.405       .  A
C437        H447   1.084       .  S
C438        C443   1.490       .  S
C438        C439   1.410       .  A
C439        C440   1.401   1_655  A
C439        N444   1.428       .  S
C440        C441   1.407       .  A
C440        H445   1.084       .  S
C441        C442   1.418       .  A
C442        N446   1.427       .  S
C443        C448   1.411       .  A
C443        C452   1.403       .  A
N444        O459   1.262       .  A
N444        O460   1.262       .  A
N446        O457   1.261       .  A
N446        O458   1.262       .  A
C448        C449   1.402       .  A
C448        N453   1.428   1_655  S
C449        C450   1.407       .  A
C449        H454   1.084       .  S
C450        C451   1.417       .  A
C451        C452   1.403       .  A
C451        N455   1.429       .  S
C452        H456   1.084       .  S
N453        O463   1.262       .  A
N453        O464   1.262       .  A
N455        O461   1.262       .  A
N455        O462   1.262       .  A
C465        C466   1.401       .  A
C465        C470   1.403       .  A
C465        H475   1.083       .  S
C466        C471   1.488       .  S
C466        C467   1.411   1_655  A
C467        C468   1.397       .  A
C467        N472   1.429       .  S
C468        C469   1.406       .  A
C468        H473   1.083       .  S
C469        C470   1.420   1_455  A
C470        N474   1.428       .  S
C471        C476   1.412       .  A
C471        C480   1.401       .  A
N472        O487   1.262       .  A
N472        O488   1.262       .  A
N474        O485   1.262       .  A
N474        O486   1.262       .  A
C476        C477   1.400       .  A
C476        N481   1.429       .  S
C477        C478   1.406       .  A
C477        H482   1.084       .  S
C478        C479   1.419       .  A
C479        C480   1.400       .  A
C479        N483   1.429       .  S
C480        H484   1.084       .  S
N481        O491   1.262       .  A
N481        O492   1.262       .  A
N483        O489   1.262       .  A
N483        O490   1.262       .  A
C493        C494   1.404       .  A
C493        C498   1.405       .  A
C493        H503   1.084       .  S
C494        C499   1.483       .  S
C494        C495   1.408       .  A
C495        C496   1.394       .  A
C495        N500   1.428       .  S
C496        C497   1.406       .  A
C496        H501   1.083       .  S
C497        C498   1.416       .  A
C498        N502   1.429       .  S
C499        C504   1.409       .  A
C499        C508   1.401       .  A
N500        O515   1.262       .  A
N500        O516   1.262       .  A
N502        O513   1.262       .  A
N502        O514   1.262       .  A
C504        C505   1.398       .  A
C504        N509   1.430       .  S
C505        C506   1.407       .  A
C505        H510   1.084       .  S
C506        C507   1.417       .  A
C507        C508   1.404       .  A
C507        N511   1.428       .  S
C508        H512   1.084       .  S
N509        O519   1.262       .  A
N509        O520   1.262       .  A
N511        O517   1.262       .  A
N511        O518   1.262       .  A
C521        C522   1.405       .  A
C521        C526   1.407       .  A
C521        H531   1.084       .  S
C522        C527   1.488       .  S
C522        C523   1.409       .  A
C523        C524   1.398       .  A
C523        N528   1.429       .  S
C524        C525   1.410       .  A
C524        H529   1.083       .  S
C525        C526   1.417       .  A
C526        N530   1.428       .  S
C527        C532   1.410       .  A
C527        C536   1.403       .  A
N528        O543   1.262       .  A
N528        O544   1.262       .  A
N530        O541   1.262       .  A
N530        O542   1.262       .  A
C532        C533   1.401       .  A
C532        N537   1.429       .  S
C533        C534   1.411       .  A
C533        H538   1.083       .  S
C534        C535   1.417       .  A
C535        C536   1.402       .  A
C535        N539   1.428       .  S
C536        H540   1.084       .  S
N537        O547   1.262       .  A
N537        O548   1.262       .  A
N539        O545   1.262       .  A
N539        O546   1.262       .  A
C549        C550   1.405       .  A
C549        C554   1.403       .  A
C549        H559   1.084       .  S
C550        C555   1.489       .  S
C550        C551   1.412       .  A
C551        C552   1.399       .  A
C551        N556   1.427       .  S
C552        C553   1.402       .  A
C552        H557   1.084       .  S
C553        C554   1.416       .  A
C554        N558   1.430       .  S
C555        C560   1.411   1_565  A
C555        C564   1.403       .  A
N556        O571   1.262       .  A
N556        O572   1.262       .  A
N558        O569   1.262       .  A
N558        O570   1.262       .  A
C560        C561   1.400       .  A
C560        N565   1.428       .  S
C561        C562   1.405       .  A
C561        H566   1.081       .  S
C562        C563   1.419       .  A
C563        C564   1.402   1_545  A
C563        N567   1.430   1_545  S
C564        H568   1.084       .  S
N565        O575   1.262       .  A
N565        O576   1.262       .  A
N567        O573   1.262   1_565  A
N567        O574   1.262       .  A
C577        C578   1.401       .  A
C577        C582   1.402       .  A
C577        H587   1.084   1_565  S
C578        C583   1.477       .  S
C578        C579   1.408       .  A
C579        C580   1.395       .  A
C579        N584   1.429       .  S
C580        C581   1.404       .  A
C580        H585   1.084       .  S
C581        C582   1.416       .  A
C582        N586   1.428       .  S
C583        C588   1.408   1_565  A
C583        C592   1.400       .  A
N584        O599   1.262       .  A
N584        O600   1.262       .  A
N586        O597   1.261       .  A
N586        O598   1.262       .  A
C588        C589   1.396       .  A
C588        N593   1.429       .  S
C589        C590   1.406       .  A
C589        H594   1.080       .  S
C590        C591   1.416   1_545  A
C591        C592   1.401       .  A
C591        N595   1.428       .  S
C592        H596   1.084       .  S
N593        O603   1.262       .  A
N593        O604   1.262       .  A
N595        O601   1.262       .  A
N595        O602   1.262       .  A
C605        C606   1.397       .  A
C605        C610   1.397       .  A
C605        H615   1.084       .  S
C606        C611   1.484       .  S
C606        C607   1.409       .  A
C607        C608   1.404       .  A
C607        N612   1.428       .  S
C608        C609   1.411       .  A
C608        H613   1.083       .  S
C609        C610   1.417       .  A
C610        N614   1.424       .  S
C611        C616   1.412       .  A
C611        C620   1.401       .  A
N612        O627   1.262       .  A
N612        O628   1.262       .  A
N614        O625   1.262       .  A
N614        O626   1.263       .  A
C616        C617   1.398       .  A
C616        N621   1.429       .  S
C617        C618   1.405       .  A
C617        H622   1.084       .  S
C618        C619   1.416       .  A
C619        C620   1.401       .  A
C619        N623   1.429       .  S
C620        H624   1.083       .  S
N621        O631   1.262       .  A
N621        O632   1.262       .  A
N623        O629   1.262       .  A
N623        O630   1.262       .  A
C633        C634   1.399       .  A
C633        C638   1.397       .  A
C633        H643   1.084       .  S
C634        C639   1.476       .  S
C634        C635   1.407       .  A
C635        C636   1.399       .  A
C635        N640   1.428       .  S
C636        C637   1.407       .  A
C636        H641   1.083   1_565  S
C637        C638   1.420       .  A
C638        N642   1.429       .  S
C639        C644   1.405       .  A
C639        C648   1.396       .  A
N640        O655   1.262       .  A
N640        O656   1.261   1_565  A
N642        O653   1.262       .  A
N642        O654   1.262       .  A
C644        C645   1.398       .  A
C644        N649   1.428       .  S
C645        C646   1.411       .  A
C645        H650   1.083       .  S
C646        C647   1.418       .  A
C647        C648   1.399       .  A
C647        N651   1.425       .  S
C648        H652   1.085       .  S
N649        O659   1.262       .  A
N649        O660   1.261   1_565  A
N651        O657   1.262       .  A
N651        O658   1.262       .  A
C661        C662   1.402       .  A
C661        C666   1.397       .  A
C661        H671   1.084       .  S
C662        C667   1.478       .  S
C662        C663   1.408       .  A
C663        C664   1.400       .  A
C663        N668   1.428       .  S
C664        C665   1.403       .  A
C664        H669   1.084       .  S
C665        C666   1.410       .  A
C666        N670   1.429       .  S
C667        C672   1.408   1_565  A
C667        C676   1.401       .  A
N668        O683   1.262       .  A
N668        O684   1.262       .  A
N670        O681   1.262       .  A
N670        O682   1.261       .  A
C672        C673   1.394       .  A
C672        N677   1.428       .  S
C673        C674   1.404       .  A
C673        H678   1.084       .  S
C674        C675   1.418   1_545  A
C675        C676   1.402       .  A
C675        N679   1.428       .  S
C676        H680   1.084       .  S
N677        O687   1.262       .  A
N677        O688   1.262       .  A
N679        O685   1.262       .  A
N679        O686   1.262       .  A
C689        C690   1.405       .  A
C689        C694   1.406       .  A
C689        H699   1.084       .  S
C690        C695   1.480       .  S
C690        C691   1.408       .  A
C691        C692   1.386       .  A
C691        N696   1.429       .  S
C692        C693   1.402       .  A
C692        H697   1.083       .  S
C693        C694   1.418       .  A
C694        N698   1.430       .  S
C695        C700   1.409       .  A
C695        C704   1.405       .  A
N696        O711   1.262       .  A
N696        O712   1.262       .  A
N698        O709   1.262       .  A
N698        O710   1.262       .  A
C700        C701   1.394       .  A
C700        N705   1.429       .  S
C701        C702   1.406       .  A
C701        H706   1.084       .  S
C702        C703   1.410       .  A
C703        C704   1.399       .  A
C703        N707   1.430       .  S
C704        H708   1.084       .  S
N705        O715   1.262       .  A
N705        O716   1.262       .  A
N707        O713   1.262       .  A
N707        O714   1.262       .  A
C717        C718   1.399       .  A
C717        C722   1.401       .  A
C717        H727   1.084       .  S
C718        C723   1.474       .  S
C718        C719   1.408       .  A
C719        C720   1.396       .  A
C719        N724   1.429       .  S
C720        C721   1.406       .  A
C720        H725   1.083       .  S
C721        C722   1.419       .  A
C722        N726   1.429       .  S
C723        C728   1.408       .  A
C723        C732   1.397       .  A
N724        O739   1.262       .  A
N724        O740   1.262       .  A
N726        O737   1.262       .  A
N726        O738   1.262       .  A
C728        C729   1.403       .  A
C728        N733   1.428       .  S
C729        C730   1.407       .  A
C729        H734   1.084       .  S
C730        C731   1.416       .  A
C731        C732   1.393       .  A
C731        N735   1.428       .  S
C732        H736   1.085       .  S
N733        O743   1.262       .  A
N733        O744   1.262       .  A
N735        O741   1.262       .  A
N735        O742   1.262       .  A
C745        C746   1.406       .  A
C745        C750   1.405       .  A
C745        H755   1.084       .  S
C746        C751   1.489       .  S
C746        C747   1.410       .  A
C747        C748   1.395       .  A
C747        N752   1.428       .  S
C748        C749   1.406       .  A
C748        H753   1.082       .  S
C749        C750   1.419       .  A
C750        N754   1.430       .  S
C751        C756   1.412       .  A
C751        C760   1.401       .  A
N752        O767   1.262       .  A
N752        O768   1.262       .  A
N754        O765   1.262       .  A
N754        O766   1.262       .  A
C756        C757   1.403       .  A
C756        N761   1.429       .  S
C757        C758   1.408       .  A
C757        H762   1.083       .  S
C758        C759   1.418       .  A
C759        C760   1.398       .  A
C759        N763   1.429       .  S
C760        H764   1.084       .  S
N761        O771   1.262       .  A
N761        O772   1.262       .  A
N763        O769   1.262       .  A
N763        O770   1.262       .  A
C773        C774   1.401       .  A
C773        C778   1.403       .  A
C773        H783   1.084       .  S
C774        C779   1.480       .  S
C774        C775   1.405       .  A
C775        C776   1.397       .  A
C775        N780   1.427       .  S
C776        C777   1.408       .  A
C776        H781   1.083       .  S
C777        C778   1.421       .  A
C778        N782   1.429       .  S
C779        C784   1.405       .  A
C779        C788   1.402       .  A
N780        O795   1.262       .  A
N780        O796   1.262       .  A
N782        O793   1.262   1_554  A
N782        O794   1.262   1_554  A
C784        C785   1.395       .  A
C784        N789   1.428       .  S
C785        C786   1.406       .  A
C785        H790   1.084       .  S
C786        C787   1.419       .  A
C787        C788   1.405       .  A
C787        N791   1.429       .  S
C788        H792   1.084       .  S
N789        O799   1.262       .  A
N789        O800   1.262       .  A
N791        O797   1.262       .  A
N791        O798   1.262       .  A
C801        C802   1.402       .  A
C801        C806   1.402       .  A
C801        H811   1.083       .  S
C802        C807   1.489       .  S
C802        C803   1.413       .  A
C803        C804   1.398       .  A
C803        N808   1.429       .  S
C804        C805   1.403       .  A
C804        H809   1.084       .  S
C805        C806   1.417       .  A
C806        N810   1.429       .  S
C807        C812   1.414       .  A
C807        C816   1.400       .  A
N808        O823   1.262       .  A
N808        O824   1.262       .  A
N810        O821   1.262       .  A
N810        O822   1.262       .  A
C812        C813   1.402       .  A
C812        N817   1.429       .  S
C813        C814   1.405       .  A
C813        H818   1.084       .  S
C814        C815   1.419       .  A
C815        C816   1.399       .  A
C815        N819   1.429       .  S
C816        H820   1.083       .  S
N817        O827   1.262       .  A
N817        O828   1.262       .  A
N819        O825   1.262       .  A
N819        O826   1.262       .  A
C829        C830   1.405       .  A
C829        C834   1.400       .  A
C829        H839   1.084       .  S
C830        C835   1.489       .  S
C830        C831   1.412       .  A
C831        C832   1.400       .  A
C831        N836   1.429       .  S
C832        C833   1.407       .  A
C832        H837   1.084       .  S
C833        C834   1.412       .  A
C834        N838   1.428       .  S
C835        C840   1.410       .  A
C835        C844   1.406       .  A
N836        O851   1.262       .  A
N836        O852   1.262       .  A
N838        O849   1.261       .  A
N838        O850   1.262       .  A
C840        C841   1.397       .  A
C840        N845   1.429       .  S
C841        C842   1.409       .  A
C841        H846   1.083       .  S
C842        C843   1.417       .  A
C843        C844   1.405       .  A
C843        N847   1.428       .  S
C844        H848   1.084       .  S
N845        O855   1.262       .  A
N845        O856   1.262       .  A
N847        O853   1.262       .  A
N847        O854   1.262       .  A
C857        C858   1.401       .  A
C857        C862   1.397       .  A
C857        H867   1.079       .  S
C858        C863   1.495       .  S
C858        C859   1.418       .  A
C859        C860   1.402       .  A
C859        N864   1.430       .  S
C860        C861   1.404       .  A
C860        H865   1.084       .  S
C861        C862   1.413       .  A
C862        N866   1.428       .  S
C863        C868   1.419       .  A
C863        C872   1.403       .  A
N864        O879   1.262       .  A
N864        O880   1.262       .  A
N866        O877   1.262       .  A
N866        O878   1.261       .  A
C868        C869   1.398       .  A
C868        N873   1.430       .  S
C869        C870   1.404       .  A
C869        H874   1.083       .  S
C870        C871   1.416       .  A
C871        C872   1.399       .  A
C871        N875   1.428       .  S
C872        H876   1.081       .  S
N873        O883   1.263       .  A
N873        O884   1.261       .  A
N875        O881   1.261       .  A
N875        O882   1.262       .  A
C885        C886   1.398       .  A
C885        C890   1.399       .  A
C885        H895   1.085       .  S
C886        C891   1.477       .  S
C886        C887   1.405       .  A
C887        C888   1.397       .  A
C887        N892   1.428       .  S
C888        C889   1.410       .  A
C888        H893   1.083       .  S
C889        C890   1.417       .  A
C890        N894   1.426       .  S
C891        C896   1.408       .  A
C891        C900   1.400       .  A
N892        O907   1.262       .  A
N892        O908   1.261       .  A
N894        O905   1.262       .  A
N894        O906   1.262   1_554  A
C896        C897   1.398       .  A
C896        N901   1.429       .  S
C897        C898   1.406       .  A
C897        H902   1.084       .  S
C898        C899   1.416       .  A
C899        C900   1.397       .  A
C899        N903   1.429       .  S
C900        H904   1.084       .  S
N901        O911   1.262       .  A
N901        O912   1.261       .  A
N903        O909   1.262       .  A
N903        O910   1.262       .  A
C913        C914   1.399       .  A
C913        C918   1.401       .  A
C913        H923   1.084       .  S
C914        C919   1.476       .  S
C914        C915   1.406       .  A
C915        C916   1.398       .  A
C915        N920   1.427       .  S
C916        C917   1.405       .  A
C916        H921   1.083       .  S
C917        C918   1.419       .  A
C918        N922   1.430       .  S
C919        C924   1.403       .  A
C919        C928   1.400       .  A
N920        O935   1.262       .  A
N920        O936   1.262       .  A
N922        O933   1.262       .  A
N922        O934   1.262       .  A
C924        C925   1.396       .  A
C924        N929   1.428       .  S
C925        C926   1.412       .  A
C925        H930   1.083       .  S
C926        C927   1.418       .  A
C927        C928   1.403       .  A
C927        N931   1.428       .  S
C928        H932   1.084       .  S
N929        O939   1.262       .  A
N929        O940   1.262       .  A
N931        O937   1.262   1_554  A
N931        O938   1.262       .  A
C941        C942   1.398       .  A
C941        C946   1.400       .  A
C941        H951   1.084       .  S
C942        C947   1.477       .  S
C942        C943   1.409       .  A
C943        C944   1.394       .  A
C943        N948   1.429       .  S
C944        C945   1.405       .  A
C944        H949   1.082       .  S
C945        C946   1.420       .  A
C946        N950   1.428       .  S
C947        C952   1.409       .  A
C947        C956   1.399       .  A
N948        O963   1.262       .  A
N948        O964   1.262       .  A
N950        O961   1.262       .  A
N950        O962   1.262       .  A
C952        C953   1.396       .  A
C952        N957   1.428       .  S
C953        C954   1.404       .  A
C953        H958   1.084       .  S
C954        C955   1.420       .  A
C955        C956   1.398       .  A
C955        N959   1.430       .  S
C956        H960   1.084       .  S
N957        O967   1.262       .  A
N957        O968   1.262       .  A
N959        O965   1.262       .  A
N959        O966   1.262       .  A
C969        C970   1.402       .  A
C969        C974   1.406       .  A
C969        H979   1.084       .  S
C970        C975   1.475       .  S
C970        C971   1.407       .  A
C971        C972   1.391       .  A
C971        N976   1.430       .  S
C972        C973   1.406       .  A
C972        H977   1.083       .  S
C973        C974   1.420       .  A
C974        N978   1.429       .  S
C975        C980   1.407       .  A
C975        C984   1.398       .  A
N976        O991   1.262       .  A
N976        O992   1.261       .  A
N978        O989   1.262       .  A
N978        O990   1.262       .  A
C980        C981   1.398       .  A
C980        N985   1.429       .  S
C981        C982   1.405       .  A
C981        H986   1.084       .  S
C982        C983   1.420       .  A
C983        C984   1.398       .  A
C983        N987   1.429       .  S
C984        H988   1.084       .  S
N985        O995   1.262       .  A
N985        O996   1.261       .  A
N987        O993   1.262       .  A
N987        O994   1.262       .  A
C997        C998   1.401       .  A
C997       C1002   1.401       .  A
C997       H1007   1.084       .  S
C998       C1003   1.479       .  S
C998        C999   1.406       .  A
C999       C1000   1.397       .  A
C999       N1004   1.428       .  S
C1000      C1001   1.407       .  A
C1000      H1005   1.083       .  S
C1001      C1002   1.419       .  A
C1002      N1006   1.430       .  S
C1003      C1008   1.411       .  A
C1003      C1012   1.403       .  A
N1004      O1019   1.262       .  A
N1004      O1020   1.261       .  A
N1006      O1017   1.262       .  A
N1006      O1018   1.262       .  A
C1008      C1009   1.395       .  A
C1008      N1013   1.430       .  S
C1009      C1010   1.401       .  A
C1009      H1014   1.084       .  S
C1010      C1011   1.412       .  A
C1011      C1012   1.405       .  A
C1011      N1015   1.428       .  S
C1012      H1016   1.084       .  S
N1013      O1023   1.262       .  A
N1013      O1024   1.261       .  A
N1015      O1021   1.262       .  A
N1015      O1022   1.262       .  A
C1025      C1026   1.401       .  A
C1025      C1030   1.398       .  A
C1025      H1035   1.082       .  S
C1026      C1031   1.484       .  S
C1026      C1027   1.414       .  A
C1027      C1028   1.391       .  A
C1027      N1032   1.430       .  S
C1028      C1029   1.402       .  A
C1028      H1033   1.080       .  S
C1029      C1030   1.417       .  A
C1030      N1034   1.429       .  S
C1031      C1036   1.416       .  A
C1031      C1040   1.403       .  A
N1032      O1047   1.262       .  A
N1032      O1048   1.262       .  A
N1034      O1045   1.262       .  A
N1034      O1046   1.262       .  A
C1036      C1037   1.391       .  A
C1036      N1041   1.430       .  S
C1037      C1038   1.399       .  A
C1037      H1042   1.084       .  S
C1038      C1039   1.413       .  A
C1039      C1040   1.399       .  A
C1039      N1043   1.429       .  S
C1040      H1044   1.083       .  S
N1041      O1051   1.262       .  A
N1041      O1052   1.262       .  A
N1043      O1049   1.262       .  A
N1043      O1050   1.262       .  A
C1053      C1054   1.403       .  A
C1053      C1058   1.405       .  A
C1053      H1063   1.084       .  S
C1054      C1059   1.472       .  S
C1054      C1055   1.406       .  A
C1055      C1056   1.387       .  A
C1055      N1060   1.430       .  S
C1056      C1057   1.408       .  A
C1056      H1061   1.083       .  S
C1057      C1058   1.415       .  A
C1058      N1062   1.428       .  S
C1059      C1064   1.406       .  A
C1059      C1068   1.400       .  A
N1060      O1075   1.262       .  A
N1060      O1076   1.262       .  A
N1062      O1073   1.262       .  A
N1062      O1074   1.262       .  A
C1064      C1065   1.395       .  A
C1064      N1069   1.429       .  S
C1065      C1066   1.405       .  A
C1065      H1070   1.084       .  S
C1066      C1067   1.415       .  A
C1067      C1068   1.399       .  A
C1067      N1071   1.429       .  S
C1068      H1072   1.084       .  S
N1069      O1079   1.262       .  A
N1069      O1080   1.261       .  A
N1071      O1077   1.262       .  A
N1071      O1078   1.262       .  A
