geometry optimzed in LAMMPS
_audit_creation_date              2020-11-30 
_audit_creation_method            'lammps2cif' 
_symmetry_space_group_name_H-M    'P1' 
_symmetry_Int_Tables_number       1 
_symmetry_cell_setting            triclinic 
loop_ 
_symmetry_equiv_pos_as_xyz 
  x,y,z 
_cell_length_a                    31.12335947 
_cell_length_b                    31.369908221077054 
_cell_length_c                    30.33188870411143 
_cell_angle_alpha                 89.96604199916351 
_cell_angle_beta                  90.01917148938114 
_cell_angle_gamma                 88.98491471166149 
loop_ 
_atom_site_label 
_atom_site_type_symbol 
_atom_site_fract_x 
_atom_site_fract_y 
_atom_site_fract_z 
_atom_site_charge 
O1          O  0.45583345  0.34982687  0.04549501    -0.73000
O2          O  0.55080906  0.34866231  0.95853406    -0.73900
O3          O  0.46188073  0.34881987  0.95279726    -0.62600
O4          O  0.54479236  0.35019997  0.05154281    -0.71000
O5          O  0.54748730  0.27943666  0.05247794    -0.70500
O6          O  0.46210443  0.27813572  0.95296598    -0.61800
O7          O  0.55240421  0.27796381  0.95822545    -0.74300
O8          O  0.45661634  0.27906317  0.04690691    -0.73100
Cu9        Cu  0.50330997  0.35168906  0.00208392     1.04600
Cu10       Cu  0.50471794  0.27600984  0.00275592     1.04300
C11         C  0.44178561  0.31484096  0.06079019     0.93200
C12         C  0.56550801  0.31348386  0.94314776     0.92400
C13         C  0.44950985  0.31370746  0.93641326     0.84500
C14         C  0.55873305  0.31535135  0.06827969     0.90800
O15         O  0.25651325  0.55164058  0.95363014    -0.73000
O16         O  0.25217357  0.63911804  0.04767528    -0.73900
O17         O  0.25371210  0.55052293  0.04618449    -0.62600
O18         O  0.25526462  0.64054243  0.95495808    -0.71000
O19         O  0.18393610  0.64154247  0.95273626    -0.70500
O20         O  0.18236676  0.54947985  0.04475902    -0.61800
O21         O  0.18084312  0.64007418  0.04632826    -0.74300
O22         O  0.18522653  0.55087158  0.95136176    -0.73100
Cu23       Cu  0.25675770  0.59546403  0.00066956     1.04600
Cu24       Cu  0.18041959  0.59552642  0.99865410     1.04300
C25         C  0.22176749  0.53731993  0.93753781     0.93200
C26         C  0.21621610  0.65315617  0.06235664     0.92400
C27         C  0.21827073  0.53608497  0.06037935     0.84500
C28         C  0.22004867  0.65512396  0.93905442     0.90800
O29         O  0.45144172  0.91732043  0.04577101    -0.73000
O30         O  0.54248019  0.91946240  0.95179580    -0.73900
O31         O  0.45148052  0.92031754  0.95160376    -0.62600
O32         O  0.54223351  0.91671827  0.04574694    -0.71000
O33         O  0.54215722  0.84592912  0.04342281    -0.70500
O34         O  0.45337297  0.84953324  0.95006162    -0.61800
O35         O  0.54226131  0.84862151  0.95003068    -0.74300
O36         O  0.45312395  0.84660983  0.04295765    -0.73100
Cu37       Cu  0.49689171  0.92111084  0.99880586     1.04600
Cu38       Cu  0.49777174  0.84535037  0.99654000     1.04300
C39         C  0.43886541  0.88122586  0.05992685     0.93200
C40         C  0.55571131  0.88407419  0.93542516     0.92400
C41         C  0.43897225  0.88508865  0.93531774     0.84500
C42         C  0.55553248  0.88054657  0.06014375     0.90800
O43         O  0.82030097  0.54546114  0.95190031    -0.73000
O44         O  0.81788020  0.63829348  0.04313810    -0.73900
O45         O  0.81699346  0.54848067  0.04566594    -0.62600
O46         O  0.82154930  0.63588346  0.94968680    -0.71000
O47         O  0.75014966  0.63647760  0.94647818    -0.70500
O48         O  0.74577542  0.55053527  0.04260484    -0.61800
O49         O  0.74662182  0.63916033  0.03952404    -0.74300
O50         O  0.74894141  0.54802216  0.94929046    -0.73100
Cu51       Cu  0.82180432  0.59190031  0.99762417     1.04600
Cu52       Cu  0.74547377  0.59359359  0.99435033     1.04300
C53         C  0.78480776  0.53290077  0.93564710     0.93200
C54         C  0.78141903  0.65262632  0.05633494     0.92400
C55         C  0.78058502  0.53657010  0.06011789     0.84500
C56         C  0.78635004  0.64952751  0.93277759     0.90800
O57         O  0.31785475  0.04696494  0.45264522    -0.73000
O58         O  0.32227699  0.13747987  0.54623658    -0.73900
O59         O  0.31838613  0.04763905  0.54669150    -0.62600
O60         O  0.32173496  0.13752294  0.45261232    -0.71000
O61         O  0.25047138  0.14047736  0.45405503    -0.70500
O62         O  0.24716240  0.05236796  0.54699822    -0.61800
O63         O  0.25090135  0.14044757  0.54681474    -0.74300
O64         O  0.24680238  0.05155857  0.45441069    -0.73100
Cu65       Cu  0.32272212  0.09219754  0.49946820     1.04600
Cu66       Cu  0.24649740  0.09634723  0.50047016     1.04300
C67         C  0.28122036  0.03525776  0.43841475     0.93200
C68         C  0.28698896  0.15237051  0.56188575     0.92400
C69         C  0.28211085  0.03664022  0.56234995     0.84500
C70         C  0.28612595  0.15312241  0.43847268     0.90800
O71         O  0.95080976  0.83388641  0.54464363    -0.73000
O72         O  0.03951681  0.83931268  0.45227546    -0.73900
O73         O  0.95056116  0.83510090  0.45220773    -0.62600
O74         O  0.03969094  0.83806506  0.54508088    -0.71000
O75         O  0.04501762  0.76742469  0.54473324    -0.70500
O76         O  0.95337611  0.76439624  0.45063992    -0.61800
O77         O  0.04444851  0.76871430  0.45039754    -0.74300
O78         O  0.95368349  0.76314370  0.54509203    -0.73100
Cu79       Cu  0.99495791  0.83881732  0.49858657     1.04600
Cu80       Cu  0.99929190  0.76319984  0.49768613     1.04300
C81         C  0.93866081  0.79836711  0.56029567     0.93200
C82         C  0.05560200  0.80521002  0.43592944     0.92400
C83         C  0.93846452  0.79986511  0.43586145     0.84500
C84         C  0.05615361  0.80352880  0.56018986     0.90800
O85         O  0.67607994  0.14093861  0.45082134    -0.73000
O86         O  0.67942991  0.04923946  0.54380074    -0.73900
O87         O  0.68131289  0.13988890  0.54461502    -0.62600
O88         O  0.67446049  0.04974288  0.45044047    -0.71000
O89         O  0.74579825  0.04787013  0.44776490    -0.70500
O90         O  0.75236147  0.13733359  0.53955120    -0.61800
O91         O  0.75071572  0.04818755  0.54065190    -0.74300
O92         O  0.74725811  0.13685356  0.44666240    -0.73100
Cu93       Cu  0.67517124  0.09508048  0.49752518     1.04600
Cu94       Cu  0.75137469  0.09248788  0.49348679     1.04300
C95         C  0.71144599  0.15291418  0.43378521     0.93200
C96         C  0.71577918  0.03475831  0.55723150     0.92400
C97         C  0.71821475  0.15233351  0.55736058     0.84500
C98         C  0.70953177  0.03482008  0.43427079     0.90800
O99         O  0.05008382  0.35356795  0.54771902    -0.73000
O100        O  0.95996157  0.35619024  0.45574745    -0.73900
O101        O  0.04903366  0.35787933  0.45492782    -0.62600
O102        O  0.96120626  0.35186564  0.54838192    -0.71000
O103        O  0.95738826  0.42257674  0.55128923    -0.70500
O104        O  0.04825574  0.42863873  0.45709896    -0.61800
O105        O  0.95691068  0.42687879  0.45725340    -0.74300
O106        O  0.04842902  0.42425562  0.55140774    -0.73100
Cu107      Cu  0.00520673  0.35261397  0.50155201     1.04600
Cu108      Cu  0.00268404  0.42828346  0.50441320     1.04300
C109        C  0.06283673  0.38814689  0.56501223     0.93200
C110        C  0.94465114  0.39143633  0.44115540     0.92400
C111        C  0.06203564  0.39356798  0.44044049     0.84500
C112        C  0.94568422  0.38605626  0.56509087     0.90800
O113        O  0.26025008  0.41698697  0.23072758    -0.73000
O114        O  0.28940251  0.32133112  0.31374261    -0.73900
O115        O  0.32314257  0.35251311  0.23283392    -0.62600
O116        O  0.22635236  0.38731131  0.31172178    -0.71000
O117        O  0.18353120  0.34539184  0.27354032    -0.70500
O118        O  0.28031669  0.31074348  0.19433371    -0.61800
O119        O  0.24621691  0.28026750  0.27486315    -0.74300
O120        O  0.21713898  0.37507921  0.19287550    -0.73100
Cu121      Cu  0.27636749  0.37097255  0.27362793     1.04600
Cu122      Cu  0.23032479  0.32632158  0.23276178     1.04300
C123        C  0.23515822  0.41091069  0.19803908     0.93200
C124        C  0.27111714  0.28564999  0.30772487     0.92400
C125        C  0.31671896  0.32806545  0.19994719     0.84500
C126        C  0.18948456  0.37122555  0.30541691     0.90800
O127        O  0.77497884  0.39246704  0.31646942    -0.73000
O128        O  0.67770617  0.36001734  0.23710871    -0.73900
O129        O  0.71241393  0.32738723  0.31714527    -0.62600
O130        O  0.73926938  0.42434543  0.23614847    -0.71000
O131        O  0.78390436  0.38210919  0.19853683    -0.70500
O132        O  0.75610236  0.28552425  0.27825274    -0.61800
O133        O  0.72202223  0.31816594  0.19881170    -0.74300
O134        O  0.81825433  0.34956270  0.27814660    -0.73100
Cu135      Cu  0.72459380  0.37760198  0.27817496     1.04600
Cu136      Cu  0.77164821  0.33244515  0.23724198     1.04300
C137        C  0.81205866  0.37544373  0.31008575     0.93200
C138        C  0.68468643  0.33453385  0.20491893     0.92400
C139        C  0.72992139  0.29083764  0.31027939     0.84500
C140        C  0.76481446  0.41808725  0.20374655     0.90800
O141        O  0.74644350  0.40921125  0.77115891    -0.73000
O142        O  0.71602441  0.31438492  0.68997828    -0.73900
O143        O  0.68311925  0.34717626  0.77075120    -0.62600
O144        O  0.77979284  0.37692878  0.69101218    -0.71000
O145        O  0.82308069  0.33394232  0.72926934    -0.70500
O146        O  0.72579346  0.30245208  0.80779086    -0.61800
O147        O  0.76030567  0.27105419  0.72681447    -0.74300
O148        O  0.78882877  0.36553481  0.80956239    -0.73100
Cu149      Cu  0.72978598  0.36336285  0.72939875     1.04600
Cu150      Cu  0.77596821  0.31662272  0.76963188     1.04300
C151        C  0.77165901  0.40237720  0.80373442     0.93200
C152        C  0.73447814  0.27801793  0.69475177     0.92400
C153        C  0.68944969  0.32131065  0.80273123     0.84500
C154        C  0.81680882  0.35979766  0.69730619     0.90800
O155        O  0.81374444  0.84265624  0.27065179    -0.73000
O156        O  0.71554764  0.87613340  0.19347247    -0.73900
O157        O  0.74950223  0.90631748  0.27360753    -0.62600
O158        O  0.77979278  0.81249036  0.19028907    -0.71000
O159        O  0.73718696  0.76966983  0.22779242    -0.70500
O160        O  0.70757430  0.86381392  0.31211515    -0.61800
O161        O  0.67315323  0.83349040  0.23134961    -0.74300
O162        O  0.77207521  0.79916930  0.30845259    -0.73100
Cu163      Cu  0.76611789  0.86089957  0.23081354     1.04600
Cu164      Cu  0.72103200  0.81497195  0.27129421     1.04300
C165        C  0.80849122  0.81625369  0.30216722     0.93200
C166        C  0.67899021  0.85924784  0.19937013     0.92400
C167        C  0.72437941  0.90022780  0.30621465     0.84500
C168        C  0.76209777  0.77641626  0.19514769     0.90800
O169        O  0.67670155  0.83863699  0.76864578    -0.73000
O170        O  0.77313874  0.80327750  0.68820224    -0.73900
O171        O  0.73998934  0.77302559  0.76898336    -0.62600
O172        O  0.71014813  0.86899092  0.68691371    -0.71000
O173        O  0.75410435  0.91058086  0.72407007    -0.70500
O174        O  0.78340053  0.81496746  0.80635841    -0.61800
O175        O  0.81619777  0.84521962  0.72618028    -0.74300
O176        O  0.72065993  0.88059764  0.80526514    -0.73100
Cu177      Cu  0.72330156  0.81951124  0.72696142     1.04600
Cu178      Cu  0.76998168  0.86430480  0.76675027     1.04300
C179        C  0.68363127  0.86453278  0.80032539     0.93200
C180        C  0.80994513  0.81967752  0.69422068     0.92400
C181        C  0.76641901  0.77864025  0.80058130     0.84500
C182        C  0.72868573  0.90470832  0.69161910     0.90800
O183        O  0.24076322  0.91375900  0.27094364    -0.73000
O184        O  0.21232853  0.81744560  0.19045933    -0.73900
O185        O  0.17879795  0.85032703  0.27076826    -0.62600
O186        O  0.27466402  0.88156967  0.19041922    -0.71000
O187        O  0.31857321  0.83842628  0.22787206    -0.70500
O188        O  0.22306135  0.80857322  0.30946859    -0.61800
O189        O  0.25603039  0.77547689  0.22942878    -0.74300
O190        O  0.28628836  0.87193574  0.30819183    -0.73100
Cu191      Cu  0.22509922  0.86730440  0.22931500     1.04600
Cu192      Cu  0.27253793  0.82212978  0.27003582     1.04300
C193        C  0.26716039  0.90784548  0.30271658     0.93200
C194        C  0.23059695  0.78118581  0.19686653     0.92400
C195        C  0.18583474  0.82526867  0.30327390     0.84500
C196        C  0.31164412  0.86410808  0.19584916     0.90800
O197        O  0.17659430  0.84999358  0.72907800    -0.73000
O198        O  0.27413202  0.88241234  0.80763877    -0.73900
O199        O  0.23732385  0.91494365  0.72911771    -0.62600
O200        O  0.21320439  0.81740056  0.80854822    -0.71000
O201        O  0.25738908  0.77610769  0.76943209    -0.70500
O202        O  0.28136589  0.87373402  0.68965756    -0.61800
O203        O  0.31772632  0.84106023  0.76794226    -0.74300
O204        O  0.22052698  0.80845060  0.69000505    -0.73100
Cu205      Cu  0.22368038  0.86757236  0.76994653     1.04600
Cu206      Cu  0.27071623  0.82336146  0.72786613     1.04300
C207        C  0.18331823  0.82511919  0.69634219     0.93200
C208        C  0.31138209  0.86608157  0.80053604     0.92400
C209        C  0.26278273  0.90971577  0.69655899     0.84500
C210        C  0.23267011  0.78171809  0.80259091     0.90800
O211        O  0.32879259  0.35109282  0.76590291    -0.73000
O212        O  0.22758362  0.38260868  0.69183905    -0.73900
O213        O  0.26469022  0.41438443  0.77022906    -0.62600
O214        O  0.29205570  0.31846441  0.68781002    -0.71000
O215        O  0.25134093  0.27621331  0.72810767    -0.70500
O216        O  0.22388699  0.37197068  0.81029301    -0.61800
O217        O  0.18689225  0.33986684  0.73164591    -0.74300
O218        O  0.28841587  0.30816801  0.80601737    -0.73100
Cu219      Cu  0.27965854  0.36812306  0.72751167     1.04600
Cu220      Cu  0.23617518  0.32255155  0.77037790     1.04300
C221        C  0.32441989  0.32553499  0.79827168     0.93200
C222        C  0.19138838  0.36554239  0.69933906     0.92400
C223        C  0.24100824  0.40814140  0.80391544     0.84500
C224        C  0.27556277  0.28208822  0.69476638     0.90800
C225        C  0.09361477  0.38535621  0.60176152    -0.05500
C226        C  0.09255631  0.34956049  0.62948987    -0.32900
C227        C  0.12287887  0.34377426  0.66288096     0.36300
C228        C  0.15532054  0.37400761  0.66885997    -0.05800
C229        C  0.15538084  0.41070822  0.64220609    -0.32800
C230        C  0.12466722  0.41663314  0.60896594     0.36200
H231        H  0.06840338  0.32549314  0.62485923     0.16600
O232        O  0.12135828  0.30761408  0.68827126    -0.60300
H233        H  0.17993547  0.43441891  0.64643856     0.16600
O234        O  0.12630144  0.45224710  0.58281310    -0.60400
H235        H  0.14443980  0.44379339  0.55728767     0.43600
H236        H  0.13858251  0.28585869  0.67200978     0.43600
C237        C  0.09209320  0.39284219  0.40310107    -0.05500
C238        C  0.08823209  0.35980692  0.37238225    -0.32900
C239        C  0.11849790  0.35379126  0.33919555     0.36300
C240        C  0.15400523  0.38092534  0.33637035    -0.05800
C241        C  0.15681007  0.41548357  0.36583674    -0.32800
C242        C  0.12577625  0.42184960  0.39884047     0.36200
H243        H  0.06203530  0.33759917  0.37478820     0.16600
O244        O  0.11451830  0.31931116  0.31179960    -0.60300
H245        H  0.18366945  0.43691990  0.36407931     0.16600
O246        O  0.13041732  0.45441764  0.42851909    -0.60400
H247        H  0.11862872  0.48014415  0.41346699     0.43600
H248        H  0.09452399  0.32894214  0.28820179     0.43600
C249        C  0.91290107  0.39032161  0.40508841    -0.05500
C250        C  0.88121140  0.42249546  0.40083738    -0.32900
C251        C  0.84850176  0.41901638  0.36921723     0.36300
C252        C  0.84779880  0.38331923  0.34093634    -0.05800
C253        C  0.88103306  0.35265562  0.34371678    -0.32800
C254        C  0.91325179  0.35588670  0.37525700     0.36200
H255        H  0.88092927  0.44959672  0.42296794     0.16600
O256        O  0.81783040  0.45079723  0.36591477    -0.60300
H257        H  0.88146435  0.32508584  0.32220440     0.16600
O258        O  0.94465434  0.32466393  0.37695901    -0.60400
H259        H  0.96887958  0.33592164  0.35947519     0.43600
H260        H  0.79692187  0.44495826  0.38973537     0.43600
C261        C  0.91452019  0.38245783  0.60109487    -0.05500
C262        C  0.91913860  0.34844823  0.63081999    -0.32900
C263        C  0.88849101  0.34162219  0.66342057     0.36300
C264        C  0.85208717  0.36891469  0.66642252    -0.05800
C265        C  0.84822898  0.40377856  0.63741660    -0.32800
C266        C  0.87939409  0.41091081  0.60519224     0.36200
H267        H  0.94643904  0.32662873  0.62840446     0.16600
O268        O  0.89401354  0.30747859  0.69127217    -0.60300
H269        H  0.82060475  0.42521144  0.63916499     0.16600
O270        O  0.87378171  0.44408166  0.57616865    -0.60400
H271        H  0.88604142  0.46916075  0.59119921     0.43600
H272        H  0.88058534  0.28316327  0.67595424     0.43600
C273        C  0.72179290  0.18384641  0.59331260    -0.05500
C274        C  0.68673771  0.21086060  0.60363794    -0.32900
C275        C  0.68999871  0.24150220  0.63700309     0.36300
C276        C  0.72830410  0.24453667  0.66145766    -0.05800
C277        C  0.76285792  0.21683803  0.65189708    -0.32800
C278        C  0.76013578  0.18715106  0.61786469     0.36200
H279        H  0.65696495  0.20878618  0.58531024     0.16600
O280        O  0.65527529  0.26753613  0.64617877    -0.60300
H281        H  0.79275383  0.21902042  0.67003184     0.16600
O282        O  0.79493498  0.16088405  0.60965998    -0.60400
H283        H  0.81436540  0.17791742  0.59096240     0.43600
H284        H  0.65596326  0.29039271  0.62359860     0.43600
C285        C  0.72108001  0.25434659  0.33980833    -0.05500
C286        C  0.74570619  0.21665348  0.33496703    -0.32900
C287        C  0.74122311  0.18274668  0.36421890     0.36300
C288        C  0.71176060  0.18588803  0.39924274    -0.05800
C289        C  0.68510057  0.22223507  0.40273421    -0.32800
C290        C  0.68977444  0.25654373  0.37353779     0.36200
H291        H  0.76945535  0.21362528  0.30900367     0.16600
O292        O  0.76632730  0.14677565  0.35862977    -0.60300
H293        H  0.66194562  0.22485507  0.42930814     0.16600
O294        O  0.66375823  0.29196220  0.37850230    -0.60400
H295        H  0.67775646  0.30927540  0.40158581     0.43600
H296        H  0.74908040  0.12777525  0.33973488     0.43600
C297        C  0.70911513  0.00237041  0.39946935    -0.05500
C298        C  0.68317638  0.96647024  0.40333433    -0.32900
C299        C  0.68710061  0.93281576  0.37305272     0.36300
C300        C  0.71643997  0.93563055  0.33761681    -0.05800
C301        C  0.74062932  0.97275449  0.33299011    -0.32800
C302        C  0.73757102  0.00554316  0.36375529     0.36200
H303        H  0.66128480  0.96367039  0.43091894     0.16600
O304        O  0.66240511  0.89744195  0.37866620    -0.60300
H305        H  0.76317621  0.97611437  0.30606465     0.16600
O306        O  0.76227780  0.04096888  0.35836567    -0.60400
H307        H  0.79122884  0.03258646  0.36937637     0.43600
H308        H  0.67802802  0.87964014  0.40068246     0.43600
C309        C  0.71772726  0.00247511  0.59244851    -0.05500
C310        C  0.68778757  0.96960865  0.59346070    -0.32900
C311        C  0.69054486  0.93753872  0.62558881     0.36300
C312        C  0.72279977  0.93894486  0.65833578    -0.05800
C313        C  0.75203872  0.97259450  0.65764019    -0.32800
C314        C  0.74988828  0.00390606  0.62498759     0.36200
H315        H  0.66293899  0.96808772  0.56850285     0.16600
O316        O  0.66143837  0.90523017  0.62469072    -0.60300
H317        H  0.77744026  0.97428182  0.68197344     0.16600
O318        O  0.77946253  0.03583069  0.62524216    -0.60400
H319        H  0.76534046  0.05982907  0.64122376     0.43600
H320        H  0.67283471  0.88460316  0.60264942     0.43600
C321        C  0.08717933  0.80862574  0.39996682    -0.05500
C322        C  0.11811627  0.77616207  0.39337841    -0.32900
C323        C  0.15007267  0.78050927  0.36129918     0.36300
C324        C  0.15099884  0.81752732  0.33496093    -0.05800
C325        C  0.11906418  0.84911662  0.34047781    -0.32800
C326        C  0.08743139  0.84499599  0.37259418     0.36200
H327        H  0.11826818  0.74789354  0.41392135     0.16600
O328        O  0.18045552  0.74867601  0.35640474    -0.60300
H329        H  0.11922707  0.87786704  0.32064821     0.16600
O330        O  0.05726928  0.87710536  0.37731682    -0.60400
H331        H  0.03637609  0.87273048  0.35314049     0.43600
H332        H  0.16906791  0.72989912  0.33301845     0.43600
C333        C  0.08744166  0.80629775  0.59653468    -0.05500
C334        C  0.08363760  0.84051836  0.62611937    -0.32900
C335        C  0.11346643  0.84592016  0.65989307     0.36300
C336        C  0.14853258  0.81713226  0.66426549    -0.05800
C337        C  0.15192137  0.78233614  0.63511064    -0.32800
C338        C  0.12158900  0.77668691  0.60155165     0.36200
H339        H  0.05744808  0.86354939  0.62290006     0.16600
O340        O  0.10925605  0.88091243  0.68674953    -0.60300
H341        H  0.17860427  0.75983358  0.63779064     0.16600
O342        O  0.12647710  0.74301648  0.57305920    -0.60400
H343        H  0.14391023  0.75404237  0.54831673     0.43600
H344        H  0.08903226  0.87231174  0.71025869     0.43600
C345        C  0.90796651  0.79964978  0.59711392    -0.05500
C346        C  0.90842671  0.83548440  0.62465653    -0.32900
C347        C  0.87745674  0.84155119  0.65702403     0.36300
C348        C  0.84515568  0.81115868  0.66289355    -0.05800
C349        C  0.84547246  0.77428148  0.63652001    -0.32800
C350        C  0.87702856  0.76813629  0.60399778     0.36200
H351        H  0.93240912  0.85978285  0.62034901     0.16600
O352        O  0.87810656  0.87841765  0.68134451    -0.60300
H353        H  0.82087972  0.75058880  0.64062392     0.16600
O354        O  0.87572051  0.73274449  0.57755977    -0.60400
H355        H  0.89074896  0.70991686  0.59450933     0.43600
H356        H  0.85998461  0.89919224  0.66468760     0.43600
C357        C  0.84421582  0.80807430  0.33309279    -0.05500
C358        C  0.87552869  0.83933840  0.33742993    -0.32900
C359        C  0.90684205  0.83618696  0.37000445     0.36300
C360        C  0.90762756  0.80110525  0.39904264    -0.05800
C361        C  0.87802944  0.76834449  0.39316443    -0.32800
C362        C  0.84605317  0.77185964  0.36068891     0.36200
H363        H  0.87490732  0.86739304  0.31655607     0.16600
O364        O  0.93621019  0.86809777  0.37356062    -0.60300
H365        H  0.87866602  0.74081405  0.41475471     0.16600
O366        O  0.81705050  0.73974969  0.35604741    -0.60400
H367        H  0.79516651  0.74502158  0.37926229     0.43600
H368        H  0.95944661  0.86018745  0.35261072     0.43600
C369        C  0.28504981  0.18575318  0.40356956    -0.05500
C370        C  0.24805097  0.18920075  0.37740036    -0.32900
C371        C  0.24366522  0.22118302  0.34594103     0.36300
C372        C  0.27680231  0.25065224  0.33975071    -0.05800
C373        C  0.31419189  0.24716025  0.36559657    -0.32800
C374        C  0.31871062  0.21457508  0.39705377     0.36200
H375        H  0.22188396  0.16723333  0.38168341     0.16600
O376        O  0.20607118  0.22403088  0.32238347    -0.60300
H377        H  0.33985610  0.26970383  0.36146408     0.16600
O378        O  0.35507856  0.21251132  0.42256422    -0.60400
H379        H  0.37608523  0.19533644  0.40519068     0.43600
H380        H  0.18730152  0.24396240  0.33933554     0.43600
C381        C  0.28729961  0.18320525  0.59812662    -0.05500
C382        C  0.31718780  0.21606012  0.59844286    -0.32900
C383        C  0.31495719  0.24792347  0.63066461     0.36300
C384        C  0.28255070  0.24686447  0.66321115    -0.05800
C385        C  0.25436315  0.21241005  0.66410659    -0.32800
C386        C  0.25654253  0.18081444  0.63196056     0.36200
H387        H  0.34132551  0.21785845  0.57280031     0.16600
O388        O  0.34390023  0.28034807  0.62930885    -0.60300
H389        H  0.22950132  0.21051998  0.68899168     0.16600
O390        O  0.22798860  0.14800418  0.63356324    -0.60400
H391        H  0.24353190  0.12439454  0.64883777     0.43600
H392        H  0.36881995  0.26998680  0.64693175     0.43600
C393        C  0.27977322  0.00614224  0.59898935    -0.05500
C394        C  0.24323769  0.00712510  0.62612477    -0.32900
C395        C  0.23823327  0.97716059  0.65952000     0.36300
C396        C  0.26977998  0.94496806  0.66567391    -0.05800
C397        C  0.30709388  0.94493189  0.63968030    -0.32800
C398        C  0.31248893  0.97555020  0.60682177     0.36200
H399        H  0.21803579  0.03092494  0.62110651     0.16600
O400        O  0.20109515  0.97804186  0.68389938    -0.60300
H401        H  0.33185965  0.92062389  0.64429240     0.16600
O402        O  0.34862014  0.97367651  0.58098856    -0.60400
H403        H  0.37067159  0.98943926  0.59766566     0.43600
H404        H  0.20610461  0.99914436  0.70760508     0.43600
C405        C  0.27267450  0.94184472  0.33527472    -0.05500
C406        C  0.23606445  0.96467423  0.34889589    -0.32900
C407        C  0.23838549  0.99479138  0.38242506     0.36300
C408        C  0.27820125  0.00311267  0.40286149    -0.05800
C409        C  0.31517987  0.98060672  0.38858064    -0.32800
C410        C  0.31254922  0.94992878  0.35516315     0.36200
H411        H  0.20502953  0.95821324  0.33434483     0.16600
O412        O  0.20115825  0.01523422  0.39533985    -0.60300
H413        H  0.34611543  0.98645266  0.40357075     0.16600
O414        O  0.34899387  0.92812452  0.34222594    -0.60400
H415        H  0.35993126  0.94410887  0.31646347     0.43600
H416        H  0.19827485  0.04033417  0.37559451     0.43600
C417        C  0.77061665  0.45159550  0.17040181    -0.05500
C418        C  0.80869492  0.45233021  0.14564613    -0.32900
C419        C  0.81293178  0.48041419  0.11016861     0.36300
C420        C  0.77824164  0.50751149  0.09823195    -0.05800
C421        C  0.74053382  0.50733961  0.12363443    -0.32800
C422        C  0.73671282  0.48008548  0.15972235     0.36200
H423        H  0.83506548  0.43057972  0.15339832     0.16600
O424        O  0.85026792  0.47953368  0.08615442    -0.60300
H425        H  0.71368243  0.52834336  0.11544832     0.16600
O426        O  0.69861050  0.47963501  0.18242973    -0.60400
H427        H  0.70079551  0.50279002  0.20452448     0.43600
H428        H  0.87029366  0.49793666  0.10260855     0.43600
C429        C  0.76886651  0.74299375  0.16161628    -0.05500
C430        C  0.80546338  0.74351913  0.13443672    -0.32900
C431        C  0.81056735  0.71396230  0.10016862     0.36300
C432        C  0.77852550  0.68373744  0.09248899    -0.05800
C433        C  0.74225936  0.68309277  0.11987024    -0.32800
C434        C  0.73736959  0.71208304  0.15429429     0.36200
H435        H  0.82995381  0.76715186  0.13946709     0.16600
O436        O  0.84634314  0.71558900  0.07386513    -0.60300
H437        H  0.71735583  0.65991910  0.11459273     0.16600
O438        O  0.70042289  0.71136648  0.17892133    -0.60400
H439        H  0.70579860  0.68936768  0.20186125     0.43600
H440        H  0.83818549  0.73484782  0.04918571     0.43600
C441        C  0.78683064  0.68051441  0.89688003    -0.05500
C442        C  0.76451617  0.67146424  0.85807122    -0.32900
C443        C  0.75985773  0.70221996  0.82512575     0.36300
C444        C  0.77636942  0.74341531  0.83158338    -0.05800
C445        C  0.80068773  0.75152621  0.86973748    -0.32800
C446        C  0.80608039  0.72027789  0.90223171     0.36200
H447        H  0.75011232  0.64054934  0.85359226     0.16600
O448        O  0.73793314  0.69191771  0.78749338    -0.60300
H449        H  0.81425257  0.78263024  0.87528464     0.16600
O450        O  0.82831880  0.72959183  0.93998494    -0.60400
H451        H  0.80628972  0.74005783  0.96118792     0.43600
H452        H  0.76028011  0.68154534  0.76659480     0.43600
C453        C  0.78465030  0.50115883  0.90025260    -0.05500
C454        C  0.81038397  0.46424917  0.90351115    -0.32900
C455        C  0.80763768  0.43210785  0.87171176     0.36300
C456        C  0.77914742  0.43707708  0.83567900    -0.05800
C457        C  0.75508141  0.47521218  0.83162116    -0.32800
C458        C  0.75730508  0.50682775  0.86375669     0.36200
H459        H  0.83151371  0.45965959  0.93158508     0.16600
O460        O  0.83184050  0.39553174  0.87712952    -0.60300
H461        H  0.73334278  0.48021779  0.80412564     0.16600
O462        O  0.73320378  0.54359598  0.85882340    -0.60400
H463        H  0.70381988  0.53622873  0.86851069     0.43600
H464        H  0.85959708  0.40129370  0.86243315     0.43600
C465        C  0.64425711  0.86787539  0.16727288    -0.05500
C466        C  0.64871161  0.90116974  0.13658838    -0.32900
C467        C  0.61936884  0.90657264  0.10206048     0.36300
C468        C  0.58539302  0.87804928  0.09748291    -0.05800
C469        C  0.57994774  0.84578805  0.12887187    -0.32800
C470        C  0.60884212  0.84062151  0.16367749     0.36200
H471        H  0.67567281  0.92245889  0.13859457     0.16600
O472        O  0.62585425  0.93792802  0.07136711    -0.60300
H473        H  0.55336182  0.82408328  0.12611439     0.16600
O474        O  0.60276257  0.80798628  0.19303167    -0.60400
H475        H  0.61700334  0.78265961  0.17950382     0.43600
H476        H  0.61291184  0.96414946  0.08437067     0.43600
C477        C  0.40816738  0.87886051  0.09667033    -0.05500
C478        C  0.37714994  0.91127818  0.10288470    -0.32900
C479        C  0.34608707  0.90774621  0.13598564     0.36300
C480        C  0.34614613  0.87155773  0.16364096    -0.05800
C481        C  0.37847414  0.84024162  0.15859714    -0.32800
C482        C  0.40924788  0.84363105  0.12554855     0.36200
H483        H  0.37622034  0.93879311  0.08127227     0.16600
O484        O  0.31551531  0.93946301  0.14047045    -0.60300
H485        H  0.37924167  0.81221497  0.17950777     0.16600
O486        O  0.44003070  0.81200522  0.12156862    -0.60400
H487        H  0.46473064  0.82183854  0.13930065     0.43600
H488        H  0.32699445  0.95883100  0.16328037     0.43600
C489        C  0.40860315  0.88434904  0.89828127    -0.05500
C490        C  0.41253177  0.85095640  0.86781721    -0.32900
C491        C  0.38223203  0.84584150  0.83460944     0.36300
C492        C  0.34686302  0.87442071  0.83145020    -0.05800
C493        C  0.34401873  0.90914466  0.86070598    -0.32800
C494        C  0.37495908  0.91454241  0.89369690     0.36200
H495        H  0.43882863  0.82795427  0.87033518     0.16600
O496        O  0.38675934  0.81171552  0.80661640    -0.60300
H497        H  0.31725308  0.93161511  0.85867607     0.16600
O498        O  0.37039404  0.94763228  0.92294555    -0.60400
H499        H  0.38247656  0.97267507  0.90766737     0.43600
H500        H  0.37346035  0.78750857  0.82224606     0.43600
C501        C  0.64915322  0.87427393  0.83261958    -0.05500
C502        C  0.60983261  0.85320496  0.82906744    -0.32900
C503        C  0.57861388  0.85749627  0.86180343     0.36300
C504        C  0.58617942  0.88342665  0.89868722    -0.05800
C505        C  0.62409755  0.90649239  0.90133749    -0.32800
C506        C  0.65583194  0.90169043  0.86897372     0.36200
H507        H  0.60363886  0.83220920  0.80153304     0.16600
O508        O  0.54105613  0.83553673  0.85788492    -0.60300
H509        H  0.63002595  0.92665536  0.92961962     0.16600
O510        O  0.69349866  0.92323601  0.87387197    -0.60400
H511        H  0.71134230  0.90535237  0.89400070     0.43600
H512        H  0.52005415  0.85623819  0.84509303     0.43600
C513        C  0.21656806  0.68414958  0.09870000    -0.05500
C514        C  0.25115654  0.68258673  0.12825444    -0.32900
C515        C  0.25504575  0.71292116  0.16137399     0.36300
C516        C  0.22413332  0.74612498  0.16526944    -0.05800
C517        C  0.18871078  0.74708492  0.13644210    -0.32800
C518        C  0.18468626  0.71623586  0.10337320     0.36200
H519        H  0.27586435  0.65796346  0.12530929     0.16600
O520        O  0.29078396  0.71123981  0.18785370    -0.60300
H521        H  0.16456320  0.77227004  0.13893829     0.16600
O522        O  0.15045061  0.71871361  0.07494217    -0.60400
H523        H  0.16066946  0.73564887  0.04951470     0.43600
H524        H  0.28367871  0.69095238  0.21174261     0.43600
C525        C  0.21980088  0.50490282  0.09635328    -0.05500
C526        C  0.25158446  0.50932446  0.12862161    -0.32900
C527        C  0.25594979  0.47987289  0.16268506     0.36300
C528        C  0.22838067  0.44475109  0.16478672    -0.05800
C529        C  0.19609866  0.44055056  0.13256774    -0.32800
C530        C  0.19167918  0.47040026  0.09846882     0.36200
H531        H  0.27347984  0.53579140  0.12732699     0.16600
O532        O  0.28875826  0.48474453  0.19235622    -0.60300
H533        H  0.17474197  0.41365900  0.13325770     0.16600
O534        O  0.16091346  0.46474185  0.06670120    -0.60400
H535        H  0.17551664  0.44825976  0.04297580     0.43600
H536        H  0.27707544  0.50439055  0.21516721     0.43600
C537        C  0.22462149  0.50518519  0.90236834    -0.05500
C538        C  0.25984702  0.50591743  0.87361619    -0.32900
C539        C  0.26512008  0.47497011  0.84105654     0.36300
C540        C  0.23467139  0.44249701  0.83656985    -0.05800
C541        C  0.19935020  0.44171485  0.86542152    -0.32800
C542        C  0.19401851  0.47296593  0.89798189     0.36200
H543        H  0.28375094  0.53046014  0.87662304     0.16600
O544        O  0.30091797  0.47615415  0.81472891    -0.60300
H545        H  0.17595549  0.41665722  0.86297276     0.16600
O546        O  0.16023798  0.47031645  0.92682970    -0.60400
H547        H  0.13565593  0.48446828  0.91160286     0.43600
H548        H  0.32298826  0.45860878  0.83031210     0.43600
C549        C  0.22177894  0.68701653  0.90368425    -0.05500
C550        C  0.25623122  0.68519337  0.87393478    -0.32900
C551        C  0.25953935  0.71502098  0.84008773     0.36300
C552        C  0.22800464  0.74758101  0.83557950    -0.05800
C553        C  0.19352752  0.74940056  0.86549680    -0.32800
C554        C  0.19012230  0.71925118  0.89921527     0.36200
H555        H  0.28083948  0.66047301  0.87692061     0.16600
O556        O  0.29431592  0.71252732  0.81236323    -0.60300
H557        H  0.16932623  0.77454803  0.86310023     0.16600
O558        O  0.15711665  0.72297041  0.92899801    -0.60400
H559        H  0.13219373  0.70956101  0.91452090     0.43600
H560        H  0.31722126  0.72860125  0.82740332     0.43600
C561        C  0.40977845  0.31654991  0.09640593    -0.05500
C562        C  0.41026454  0.35138524  0.12528460    -0.32900
C563        C  0.38112868  0.35461861  0.15992594     0.36300
C564        C  0.35058381  0.32253088  0.16640569    -0.05800
C565        C  0.35003771  0.28751073  0.13752663    -0.32800
C566        C  0.37948527  0.28430258  0.10272614     0.36200
H567        H  0.43348903  0.37641006  0.12108425     0.16600
O568        O  0.38210304  0.39005899  0.18638636    -0.60300
H569        H  0.32639391  0.26287510  0.14156828     0.16600
O570        O  0.37772812  0.25013252  0.07463857    -0.60400
H571        H  0.35815405  0.25939841  0.05052475     0.43600
H572        H  0.36228873  0.41107379  0.17223284     0.43600
C573        C  0.58815168  0.31722864  0.10610806    -0.05500
C574        C  0.62198566  0.28743022  0.10990472    -0.32900
C575        C  0.65291856  0.29157647  0.14300114     0.36300
C576        C  0.64990716  0.32572716  0.17324979    -0.05800
C577        C  0.61445537  0.35391473  0.17093640    -0.32800
C578        C  0.58396639  0.35012868  0.13749192     0.36200
H579        H  0.62542509  0.26183653  0.08611903     0.16600
O580        O  0.68654600  0.26277348  0.14458138    -0.60300
H581        H  0.61113584  0.38010929  0.19402499     0.16600
O582        O  0.54987963  0.37847025  0.13603883    -0.60400
H583        H  0.56143857  0.40481284  0.12279411     0.43600
H584        H  0.67658116  0.23945794  0.16393161     0.43600
C585        C  0.59646115  0.31431909  0.90634650    -0.05500
C586        C  0.62349301  0.27893007  0.89779226    -0.32900
C587        C  0.65306695  0.27980361  0.86299891     0.36300
C588        C  0.65551703  0.31628068  0.83602074    -0.05800
C589        C  0.62731207  0.35079909  0.84357899    -0.32800
C590        C  0.59809652  0.35011263  0.87825222     0.36200
H591        H  0.62220548  0.25083764  0.91851069     0.16600
O592        O  0.67960961  0.24510529  0.85599611    -0.60300
H593        H  0.62875060  0.37923335  0.82335517     0.16600
O594        O  0.57134239  0.38483742  0.88429797    -0.60400
H595        H  0.54510605  0.37848726  0.86714628     0.43600
H596        H  0.66541739  0.22847620  0.83249848     0.43600
C597        C  0.36030700  0.31903151  0.82902790    -0.05500
C598        C  0.38742025  0.35330468  0.83705366    -0.32900
C599        C  0.41729957  0.35150535  0.87116322     0.36300
C600        C  0.42063200  0.31475415  0.89791719    -0.05800
C601        C  0.39541705  0.27932686  0.88799983    -0.32800
C602        C  0.36522959  0.28134589  0.85386600     0.36200
H603        H  0.38407060  0.38256189  0.81822776     0.16600
O604        O  0.44214049  0.38644042  0.87878856    -0.60300
H605        H  0.39801720  0.25054912  0.90765401     0.16600
O606        O  0.34002117  0.24679083  0.84581098    -0.60400
H607        H  0.35507794  0.23065084  0.82214237     0.43600
H608        H  0.46614182  0.38398927  0.85740500     0.43600
loop_ 
_geom_bond_atom_site_label_1 
_geom_bond_atom_site_label_2 
_geom_bond_distance 
_geom_bond_site_symmetry_2 
_ccdc_geom_bond_type 
O1           Cu9   1.981       .  S
O1           C11   1.276       .  A
O2           Cu9   1.984   1_556  S
O2           C12   1.276       .  A
O3           Cu9   1.977   1_556  S
O3           C13   1.274       .  A
O4           Cu9   1.979       .  S
O4           C14   1.274       .  A
O5          Cu10   2.015       .  S
O5           C14   1.279       .  A
O6          Cu10   2.010   1_556  S
O6           C13   1.279       .  A
O7          Cu10   2.009   1_556  S
O7           C12   1.278       .  A
O8          Cu10   2.010       .  S
O8           C11   1.278       .  A
Cu9         Cu10   2.374       .  S
C11         C561   1.470       .  S
C12         C585   1.475       .  S
C13         C600   1.473       .  S
C14         C573   1.470       .  S
O15         Cu23   1.982   1_556  S
O15          C25   1.275       .  A
O16         Cu23   1.981       .  S
O16          C26   1.276       .  A
O17         Cu23   1.976       .  S
O17          C27   1.275       .  A
O18         Cu23   1.980   1_556  S
O18          C28   1.275       .  A
O19         Cu24   2.010       .  S
O19          C28   1.278       .  A
O20         Cu24   2.010   1_554  S
O20          C27   1.278       .  A
O21         Cu24   2.012   1_554  S
O21          C26   1.278       .  A
O22         Cu24   2.009       .  S
O22          C25   1.278       .  A
Cu23        Cu24   2.377   1_554  S
C25         C537   1.470       .  S
C26         C513   1.470       .  S
C27         C525   1.465       .  S
C28         C549   1.468       .  S
O29         Cu37   2.013   1_554  S
O29          C39   1.279       .  A
O30         Cu37   2.012       .  S
O30          C40   1.278       .  A
O31         Cu37   2.012       .  S
O31          C41   1.278       .  A
O32         Cu37   2.007   1_554  S
O32          C42   1.278       .  A
O33         Cu38   1.983   1_554  S
O33          C42   1.275       .  A
O34         Cu38   1.976       .  S
O34          C41   1.275       .  A
O35         Cu38   1.981       .  S
O35          C40   1.275       .  A
O36         Cu38   1.978   1_554  S
O36          C39   1.275       .  A
Cu37        Cu38   2.377       .  S
C39         C477   1.471       .  S
C40         C504   1.463       .  S
C41         C489   1.468       .  S
C42         C468   1.466       .  S
O43         Cu51   2.013       .  S
O43          C53   1.278       .  A
O44         Cu51   2.009   1_554  S
O44          C54   1.278       .  A
O45         Cu51   2.002   1_554  S
O45          C55   1.277       .  A
O46         Cu51   2.004       .  S
O46          C56   1.276       .  A
O47         Cu52   1.986       .  S
O47          C56   1.275       .  A
O48         Cu52   1.991   1_554  S
O48          C55   1.277       .  A
O49         Cu52   1.981   1_554  S
O49          C54   1.276       .  A
O50         Cu52   1.980       .  S
O50          C53   1.274       .  A
Cu51        Cu52   2.377       .  S
C53         C453   1.465       .  S
C54         C432   1.470       .  S
C55         C420   1.474       .  S
C56         C441   1.459       .  S
O57         Cu65   2.016       .  S
O57          C67   1.279       .  A
O58         Cu65   2.008       .  S
O58          C68   1.278       .  A
O59         Cu65   2.007       .  S
O59          C69   1.278       .  A
O60         Cu65   2.010       .  S
O60          C70   1.277       .  A
O61         Cu66   1.979       .  S
O61          C70   1.276       .  A
O62         Cu66   1.973       .  S
O62          C69   1.274       .  A
O63         Cu66   1.979       .  S
O63          C68   1.275       .  A
O64         Cu66   1.982       .  S
O64          C67   1.275       .  A
Cu65        Cu66   2.374       .  S
C67         C408   1.481       .  S
C68         C381   1.465       .  S
C69         C393   1.469       .  S
C70         C369   1.472       .  S
O71         Cu79   1.968       .  S
O71          C81   1.274       .  A
O72         Cu79   1.975   1_455  S
O72          C82   1.274       .  A
O73         Cu79   1.976       .  S
O73          C83   1.275       .  A
O74         Cu79   1.981   1_455  S
O74          C84   1.275       .  A
O75         Cu80   2.021   1_455  S
O75          C84   1.279       .  A
O76         Cu80   2.019       .  S
O76          C83   1.279       .  A
O77         Cu80   2.018   1_455  S
O77          C82   1.280       .  A
O78         Cu80   2.021       .  S
O78          C81   1.279       .  A
Cu79        Cu80   2.374       .  S
C81         C345   1.470       .  S
C82         C321   1.474       .  S
C83         C360   1.472       .  S
C84         C333   1.474       .  S
O85         Cu93   2.019       .  S
O85          C95   1.278       .  A
O86         Cu93   2.012       .  S
O86          C96   1.278       .  A
O87         Cu93   2.016       .  S
O87          C97   1.279       .  A
O88         Cu93   2.017       .  S
O88          C98   1.278       .  A
O89         Cu94   1.981       .  S
O89          C98   1.275       .  A
O90         Cu94   1.984       .  S
O90          C97   1.275       .  A
O91         Cu94   1.994       .  S
O91          C96   1.276       .  A
O92         Cu94   1.990       .  S
O92          C95   1.276       .  A
Cu93        Cu94   2.375       .  S
C95         C288   1.472       .  S
C96         C309   1.472       .  S
C97         C273   1.478       .  S
C98         C297   1.467       .  S
O99        Cu107   1.978       .  S
O99         C109   1.275       .  A
O100       Cu107   1.980   1_655  S
O100        C110   1.275       .  A
O101       Cu107   1.974       .  S
O101        C111   1.275       .  A
O102       Cu107   1.974   1_655  S
O102        C112   1.274       .  A
O103       Cu108   2.013   1_655  S
O103        C112   1.279       .  A
O104       Cu108   2.018       .  S
O104        C111   1.278       .  A
O105       Cu108   2.020   1_655  S
O105        C110   1.279       .  A
O106       Cu108   2.017       .  S
O106        C109   1.279       .  A
Cu107      Cu108   2.375       .  S
C109        C225   1.471       .  S
C110        C249   1.475       .  S
C111        C237   1.469       .  S
C112        C261   1.466       .  S
O113       Cu121   2.000       .  S
O113        C123   1.278       .  A
O114       Cu121   2.011       .  S
O114        C124   1.278       .  A
O115       Cu121   1.989       .  S
O115        C125   1.276       .  A
O116       Cu121   1.999       .  S
O116        C126   1.276       .  A
O117       Cu122   1.995       .  S
O117        C126   1.278       .  A
O118       Cu122   1.998       .  S
O118        C125   1.277       .  A
O119       Cu122   1.984       .  S
O119        C124   1.276       .  A
O120       Cu122   1.987       .  S
O120        C123   1.275       .  A
Cu121      Cu122   2.371       .  S
C123        C528   1.476       .  S
C124        C372   1.474       .  S
C125        C564   1.473       .  S
C126        C240   1.477       .  S
O127       Cu135   2.013       .  S
O127        C137   1.278       .  A
O128       Cu135   2.003       .  S
O128        C138   1.278       .  A
O129       Cu135   2.010       .  S
O129        C139   1.278       .  A
O130       Cu135   2.001       .  S
O130        C140   1.277       .  A
O131       Cu136   1.993       .  S
O131        C140   1.276       .  A
O132       Cu136   1.993       .  S
O132        C139   1.277       .  A
O133       Cu136   1.992       .  S
O133        C138   1.276       .  A
O134       Cu136   1.990       .  S
O134        C137   1.277       .  A
Cu135      Cu136   2.371       .  S
C137        C252   1.478       .  S
C138        C576   1.477       .  S
C139        C285   1.483       .  S
C140        C417   1.472       .  S
O141       Cu149   1.992       .  S
O141        C151   1.277       .  A
O142       Cu149   2.000       .  S
O142        C152   1.276       .  A
O143       Cu149   1.992       .  S
O143        C153   1.277       .  A
O144       Cu149   1.996       .  S
O144        C154   1.277       .  A
O145       Cu150   1.993       .  S
O145        C154   1.276       .  A
O146       Cu150   2.000       .  S
O146        C153   1.276       .  A
O147       Cu150   1.999       .  S
O147        C152   1.278       .  A
O148       Cu150   2.001       .  S
O148        C151   1.277       .  A
Cu149      Cu150   2.372       .  S
C151        C456   1.479       .  S
C152        C276   1.472       .  S
C153        C588   1.472       .  S
C154        C264   1.475       .  S
O155       Cu163   1.988       .  S
O155        C165   1.277       .  A
O156       Cu163   1.990       .  S
O156        C166   1.276       .  A
O157       Cu163   1.990       .  S
O157        C167   1.277       .  A
O158       Cu163   1.994       .  S
O158        C168   1.276       .  A
O159       Cu164   1.998       .  S
O159        C168   1.278       .  A
O160       Cu164   2.009       .  S
O160        C167   1.277       .  A
O161       Cu164   1.998       .  S
O161        C166   1.277       .  A
O162       Cu164   2.003       .  S
O162        C165   1.277       .  A
Cu163      Cu164   2.371       .  S
C165        C357   1.473       .  S
C166        C465   1.476       .  S
C167        C300   1.481       .  S
C168        C429   1.474       .  S
O169       Cu177   2.008       .  S
O169        C179   1.279       .  A
O170       Cu177   2.005       .  S
O170        C180   1.277       .  A
O171       Cu177   1.998       .  S
O171        C181   1.277       .  A
O172       Cu177   2.007       .  S
O172        C182   1.277       .  A
O173       Cu178   2.000       .  S
O173        C182   1.278       .  A
O174       Cu178   1.997       .  S
O174        C181   1.277       .  A
O175       Cu178   1.978       .  S
O175        C180   1.275       .  A
O176       Cu178   1.989       .  S
O176        C179   1.275       .  A
Cu177      Cu178   2.370       .  S
C179        C501   1.481       .  S
C180        C348   1.472       .  S
C181        C444   1.479       .  S
C182        C312   1.483       .  S
O183       Cu191   1.996       .  S
O183        C193   1.278       .  A
O184       Cu191   2.004       .  S
O184        C194   1.277       .  A
O185       Cu191   1.992       .  S
O185        C195   1.277       .  A
O186       Cu191   1.999       .  S
O186        C196   1.276       .  A
O187       Cu192   1.994       .  S
O187        C196   1.277       .  A
O188       Cu192   2.002       .  S
O188        C195   1.277       .  A
O189       Cu192   1.988       .  S
O189        C194   1.276       .  A
O190       Cu192   1.997       .  S
O190        C193   1.276       .  A
Cu191      Cu192   2.374       .  S
C193        C405   1.466       .  S
C194        C516   1.476       .  S
C195        C324   1.472       .  S
C196        C480   1.474       .  S
O197       Cu205   2.004       .  S
O197        C207   1.278       .  A
O198       Cu205   2.004       .  S
O198        C208   1.278       .  A
O199       Cu205   1.986       .  S
O199        C209   1.275       .  A
O200       Cu205   1.993       .  S
O200        C210   1.276       .  A
O201       Cu206   1.995       .  S
O201        C210   1.277       .  A
O202       Cu206   1.992       .  S
O202        C209   1.277       .  A
O203       Cu206   1.989       .  S
O203        C208   1.276       .  A
O204       Cu206   2.001       .  S
O204        C207   1.277       .  A
Cu205      Cu206   2.372       .  S
C207        C336   1.480       .  S
C208        C492   1.475       .  S
C209        C396   1.468       .  S
C210        C552   1.474       .  S
O211       Cu219   1.987       .  S
O211        C221   1.276       .  A
O212       Cu219   1.994       .  S
O212        C222   1.276       .  A
O213       Cu219   1.995       .  S
O213        C223   1.277       .  A
O214       Cu219   2.002       .  S
O214        C224   1.277       .  A
O215       Cu220   1.989       .  S
O215        C224   1.277       .  A
O216       Cu220   1.999       .  S
O216        C223   1.277       .  A
O217       Cu220   1.999       .  S
O217        C222   1.277       .  A
O218       Cu220   1.997       .  S
O218        C221   1.276       .  A
Cu219      Cu220   2.373       .  S
C221        C597   1.466       .  S
C222        C228   1.474       .  S
C223        C540   1.475       .  S
C224        C384   1.476       .  S
C225        C226   1.403       .  A
C225        C230   1.406       .  A
C226        C227   1.394       .  A
C226        H231   1.084       .  S
C227        C228   1.409       .  A
C227        O232   1.372       .  S
C228        C229   1.406       .  A
C229        C230   1.399       .  A
C229        H233   1.083       .  S
C230        O234   1.371       .  S
O232        H236   0.992       .  S
O234        H235   0.992       .  S
C237        C238   1.401       .  A
C237        C242   1.406       .  A
C238        C239   1.390       .  A
C238        H243   1.084       .  S
C239        C240   1.409       .  A
C239        O244   1.372       .  S
C240        C241   1.409       .  A
C241        C242   1.403       .  A
C241        H245   1.083       .  S
C242        O246   1.372       .  S
O244        H248   0.992       .  S
O246        H247   0.992       .  S
C249        C250   1.404       .  A
C249        C254   1.409       .  A
C250        C251   1.404       .  A
C250        H255   1.083       .  S
C251        C252   1.411       .  A
C251        O256   1.372       .  S
C252        C253   1.402       .  A
C253        C254   1.391       .  A
C253        H257   1.084       .  S
C254        O258   1.372       .  S
O256        H260   0.992       .  S
O258        H259   0.992       .  S
C261        C262   1.402       .  A
C261        C266   1.405       .  A
C262        C263   1.393       .  A
C262        H267   1.084       .  S
C263        C264   1.411       .  A
C263        O268   1.372       .  S
C264        C265   1.407       .  A
C265        C266   1.398       .  A
C265        H269   1.083       .  S
C266        O270   1.371       .  S
O268        H272   0.992       .  S
O270        H271   0.992       .  S
C273        C274   1.405       .  A
C273        C278   1.412       .  A
C274        C275   1.401       .  A
C274        H279   1.083       .  S
C275        C276   1.409       .  A
C275        O280   1.372       .  S
C276        C277   1.401       .  A
C277        C278   1.394       .  A
C277        H281   1.084       .  S
C278        O282   1.372       .  S
O280        H284   0.992       .  S
O282        H283   0.992       .  S
C285        C286   1.405       .  A
C285        C290   1.414       .  A
C286        C287   1.394       .  A
C286        H291   1.083       .  S
C287        C288   1.406       .  A
C287        O292   1.372       .  S
C288        C289   1.402       .  A
C289        C290   1.403       .  A
C289        H293   1.084       .  S
C290        O294   1.372       .  S
O292        H296   0.992       .  S
O294        H295   0.992       .  S
C297        C298   1.402   1_545  A
C297        C302   1.404       .  A
C298        C299   1.403       .  A
C298        H303   1.084       .  S
C299        C300   1.414       .  A
C299        O304   1.372       .  S
C300        C301   1.405       .  A
C301        C302   1.391   1_565  A
C301        H305   1.083       .  S
C302        O306   1.372       .  S
O304        H308   0.992       .  S
O306        H307   0.992       .  S
C309        C310   1.402   1_545  A
C309        C314   1.407       .  A
C310        C311   1.402       .  A
C310        H315   1.084       .  S
C311        C312   1.413       .  A
C311        O316   1.372       .  S
C312        C313   1.406       .  A
C313        C314   1.395   1_565  A
C313        H317   1.083       .  S
C314        O318   1.372       .  S
O316        H320   0.992       .  S
O318        H319   0.992       .  S
C321        C322   1.403       .  A
C321        C326   1.411       .  A
C322        C323   1.400       .  A
C322        H327   1.083       .  S
C323        C324   1.410       .  A
C323        O328   1.371       .  S
C324        C325   1.401       .  A
C325        C326   1.393       .  A
C325        H329   1.084       .  S
C326        O330   1.372       .  S
O328        H332   0.992       .  S
O330        H331   0.991       .  S
C333        C334   1.403       .  A
C333        C338   1.407       .  A
C334        C335   1.395       .  A
C334        H339   1.084       .  S
C335        C336   1.410       .  A
C335        O340   1.372       .  S
C336        C337   1.408       .  A
C337        C338   1.402       .  A
C337        H341   1.083       .  S
C338        O342   1.372       .  S
O340        H344   0.992       .  S
O342        H343   0.992       .  S
C345        C346   1.401       .  A
C345        C350   1.408       .  A
C346        C347   1.387       .  A
C346        H351   1.084       .  S
C347        C348   1.409       .  A
C347        O352   1.373       .  S
C348        C349   1.407       .  A
C349        C350   1.403       .  A
C349        H353   1.083       .  S
C350        O354   1.371       .  S
O352        H356   0.992       .  S
O354        H355   0.992       .  S
C357        C358   1.401       .  A
C357        C362   1.411       .  A
C358        C359   1.390       .  A
C358        H363   1.084       .  S
C359        C360   1.409       .  A
C359        O364   1.372       .  S
C360        C361   1.404       .  A
C361        C362   1.403       .  A
C361        H365   1.083       .  S
C362        O366   1.372       .  S
O364        H368   0.991       .  S
O366        H367   0.992       .  S
C369        C370   1.401       .  A
C369        C374   1.410       .  A
C370        C371   1.389       .  A
C370        H375   1.084       .  S
C371        C372   1.410       .  A
C371        O376   1.372       .  S
C372        C373   1.406       .  A
C373        C374   1.403       .  A
C373        H377   1.083       .  S
C374        O378   1.371       .  S
O376        H380   0.992       .  S
O378        H379   0.992       .  S
C381        C382   1.401       .  A
C381        C386   1.407       .  A
C382        C383   1.399       .  A
C382        H387   1.084       .  S
C383        C384   1.412       .  A
C383        O388   1.371       .  S
C384        C385   1.404       .  A
C385        C386   1.392       .  A
C385        H389   1.083       .  S
C386        O390   1.373       .  S
O388        H392   0.992       .  S
O390        H391   0.992       .  S
C393        C394   1.404       .  A
C393        C398   1.407   1_545  A
C394        C395   1.392   1_545  A
C394        H399   1.084       .  S
C395        C396   1.408       .  A
C395        O400   1.372       .  S
C396        C397   1.404       .  A
C397        C398   1.396       .  A
C397        H401   1.084       .  S
C398        O402   1.371       .  S
O400        H404   0.992       .  S
O402        H403   0.992       .  S
C405        C406   1.398       .  A
C405        C410   1.407       .  A
C406        C407   1.391       .  A
C406        H411   1.084       .  S
C407        C408   1.414   1_565  A
C407        O412   1.372   1_565  S
C408        C409   1.408   1_545  A
C409        C410   1.401       .  A
C409        H413   1.083       .  S
C410        O414   1.372       .  S
O412        H416   0.992       .  S
O414        H415   0.992       .  S
C417        C418   1.404       .  A
C417        C422   1.408       .  A
C418        C419   1.398       .  A
C418        H423   1.084       .  S
C419        C420   1.409       .  A
C419        O424   1.372       .  S
C420        C421   1.404       .  A
C421        C422   1.395       .  A
C421        H425   1.084       .  S
C422        O426   1.372       .  S
O424        H428   0.992       .  S
O426        H427   0.992       .  S
C429        C430   1.407       .  A
C429        C434   1.409       .  A
C430        C431   1.400       .  A
C430        H435   1.083       .  S
C431        C432   1.408       .  A
C431        O436   1.372       .  S
C432        C433   1.402       .  A
C433        C434   1.392       .  A
C433        H437   1.084       .  S
C434        O438   1.372       .  S
O436        H440   0.992       .  S
O438        H439   0.992       .  S
C441        C442   1.398       .  A
C441        C446   1.403       .  A
C442        C443   1.394       .  A
C442        H447   1.084       .  S
C443        C444   1.413       .  A
C443        O448   1.371       .  S
C444        C445   1.408       .  A
C445        C446   1.398       .  A
C445        H449   1.083       .  S
C446        O450   1.372       .  S
O448        H452   0.992       .  S
O450        H451   0.992       .  S
C453        C454   1.400       .  A
C453        C458   1.405       .  A
C454        C455   1.399       .  A
C454        H459   1.084       .  S
C455        C456   1.414       .  A
C455        O460   1.371       .  S
C456        C457   1.405       .  A
C457        C458   1.394       .  A
C457        H461   1.083       .  S
C458        O462   1.373       .  S
O460        H464   0.992       .  S
O462        H463   0.992       .  S
C465        C466   1.407       .  A
C465        C470   1.411       .  A
C466        C467   1.398       .  A
C466        H471   1.083       .  S
C467        C468   1.404       .  A
C467        O472   1.372       .  S
C468        C469   1.402       .  A
C469        C470   1.394       .  A
C469        H473   1.084       .  S
C470        O474   1.372       .  S
O472        H476   0.992       .  S
O474        H475   0.992       .  S
C477        C478   1.403       .  A
C477        C482   1.410       .  A
C478        C479   1.400       .  A
C478        H483   1.084       .  S
C479        C480   1.411       .  A
C479        O484   1.371       .  S
C480        C481   1.402       .  A
C481        C482   1.392       .  A
C481        H485   1.084       .  S
C482        O486   1.372       .  S
O484        H488   0.992       .  S
O486        H487   0.992       .  S
C489        C490   1.401       .  A
C489        C494   1.406       .  A
C490        C491   1.391       .  A
C490        H495   1.084       .  S
C491        C492   1.411       .  A
C491        O496   1.372       .  S
C492        C493   1.407       .  A
C493        C494   1.401       .  A
C493        H497   1.083       .  S
C494        O498   1.371       .  S
O496        H500   0.992       .  S
O498        H499   0.992       .  S
C501        C502   1.405       .  A
C501        C506   1.416       .  A
C502        C503   1.394       .  A
C502        H507   1.083       .  S
C503        C504   1.406       .  A
C503        O508   1.372       .  S
C504        C505   1.398       .  A
C505        C506   1.399       .  A
C505        H509   1.084       .  S
C506        O510   1.372       .  S
O508        H512   0.992       .  S
O510        H511   0.992       .  S
C513        C514   1.401       .  A
C513        C518   1.408       .  A
C514        C515   1.391       .  A
C514        H519   1.084       .  S
C515        C516   1.410       .  A
C515        O520   1.372       .  S
C516        C517   1.407       .  A
C517        C518   1.401       .  A
C517        H521   1.083       .  S
C518        O522   1.372       .  S
O520        H524   0.992       .  S
O522        H523   0.992       .  S
C525        C526   1.400       .  A
C525        C530   1.405       .  A
C526        C527   1.391       .  A
C526        H531   1.084       .  S
C527        C528   1.410       .  A
C527        O532   1.372       .  S
C528        C529   1.409       .  A
C529        C530   1.400       .  A
C529        H533   1.083       .  S
C530        O534   1.372       .  S
O532        H536   0.992       .  S
O534        H535   0.992       .  S
C537        C538   1.402       .  A
C537        C542   1.407       .  A
C538        C539   1.393       .  A
C538        H543   1.084       .  S
C539        C540   1.410       .  A
C539        O544   1.372       .  S
C540        C541   1.406       .  A
C541        C542   1.400       .  A
C541        H545   1.083       .  S
C542        O546   1.372       .  S
O544        H548   0.992       .  S
O546        H547   0.992       .  S
C549        C550   1.402       .  A
C549        C554   1.406       .  A
C550        C551   1.394       .  A
C550        H555   1.084       .  S
C551        C552   1.410       .  A
C551        O556   1.372       .  S
C552        C553   1.406       .  A
C553        C554   1.398       .  A
C553        H557   1.083       .  S
C554        O558   1.372       .  S
O556        H560   0.992       .  S
O558        H559   0.991       .  S
C561        C562   1.401       .  A
C561        C566   1.408       .  A
C562        C563   1.391       .  A
C562        H567   1.084       .  S
C563        C564   1.410       .  A
C563        O568   1.372       .  S
C564        C565   1.406       .  A
C565        C566   1.401       .  A
C565        H569   1.083       .  S
C566        O570   1.371       .  S
O568        H572   0.992       .  S
O570        H571   0.992       .  S
C573        C574   1.400       .  A
C573        C578   1.409       .  A
C574        C575   1.398       .  A
C574        H579   1.084       .  S
C575        C576   1.413       .  A
C575        O580   1.371       .  S
C576        C577   1.403       .  A
C577        C578   1.395       .  A
C577        H581   1.084       .  S
C578        O582   1.373       .  S
O580        H584   0.992       .  S
O582        H583   0.992       .  S
C585        C586   1.405       .  A
C585        C590   1.411       .  A
C586        C587   1.401       .  A
C586        H591   1.083       .  S
C587        C588   1.410       .  A
C587        O592   1.371       .  S
C588        C589   1.401       .  A
C589        C590   1.391       .  A
C589        H593   1.084       .  S
C590        O594   1.372       .  S
O592        H596   0.992       .  S
O594        H595   0.991       .  S
C597        C598   1.400       .  A
C597        C602   1.408       .  A
C598        C599   1.391       .  A
C598        H603   1.084       .  S
C599        C600   1.412       .  A
C599        O604   1.372       .  S
C600        C601   1.404       .  A
C601        C602   1.399       .  A
C601        H605   1.083       .  S
C602        O606   1.371       .  S
O604        H608   0.991       .  S
O606        H607   0.992       .  S
