geometry optimzed in LAMMPS
_audit_creation_date              2020-12-01 
_audit_creation_method            'lammps2cif' 
_symmetry_space_group_name_H-M    'P1' 
_symmetry_Int_Tables_number       1 
_symmetry_cell_setting            triclinic 
loop_ 
_symmetry_equiv_pos_as_xyz 
  x,y,z 
_cell_length_a                    46.62804715 
_cell_length_b                    46.90485855760001 
_cell_length_c                    46.55094511164361 
_cell_angle_alpha                 90.23413408385207 
_cell_angle_beta                  89.68769699622504 
_cell_angle_gamma                 90.22718921542227 
loop_ 
_atom_site_label 
_atom_site_type_symbol 
_atom_site_fract_x 
_atom_site_fract_y 
_atom_site_fract_z 
_atom_site_charge 
N1          N  0.51404643  0.54663267  0.28751303    -0.02800
C2          C  0.50236169  0.54026237  0.26150171    -0.00200
C3          C  0.47476290  0.55070395  0.25990301    -0.23100
C4          C  0.46907178  0.56386558  0.28564928    -0.23300
C5          C  0.49339554  0.56116192  0.30222325    -0.00300
H6          H  0.46049187  0.54932286  0.24168506     0.13500
H7          H  0.44948601  0.57481913  0.29148436     0.13600
N8          N  0.53146396  0.41987335  0.65770914    -0.02800
C9          C  0.53874516  0.42200811  0.68618752    -0.00200
C10         C  0.56551088  0.41041686  0.69068463    -0.23100
C11         C  0.57520583  0.40052965  0.66477493    -0.23300
C12         C  0.55412423  0.40614222  0.64488589    -0.00300
H13         H  0.57640272  0.40843298  0.71105318     0.13500
H14         H  0.59493498  0.38895055  0.66111984     0.13600
N15         N  0.82728006  0.47830690  0.90250470    -0.02800
C16         C  0.80090947  0.46843777  0.91036643    -0.00200
C17         C  0.79778580  0.44022920  0.90241312    -0.23100
C18         C  0.82303127  0.43224769  0.88946288    -0.23300
C19         C  0.84086071  0.45588635  0.88975497    -0.00300
H20         H  0.77904443  0.42691420  0.90565666     0.13500
H21         H  0.82787489  0.41139222  0.88071769     0.13600
N22         N  0.45170126  0.79095688  0.96821710    -0.02800
C23         C  0.45356618  0.76370531  0.97817784    -0.00200
C24         C  0.43663043  0.76048713  0.00243451    -0.23100
C25         C  0.42380343  0.78624566  0.00759329    -0.23300
C26         C  0.43338569  0.80451431  0.98644784    -0.00300
H27         H  0.43391824  0.74131016  0.01503490     0.13500
H28         H  0.40893930  0.79115666  0.02483560     0.13600
N29         N  0.20624917  0.48571689  0.03492787    -0.02800
C30         C  0.23271229  0.49724562  0.02974554    -0.00200
C31         C  0.23489270  0.52397309  0.04209172    -0.23100
C32         C  0.20925676  0.52928583  0.05551307    -0.23300
C33         C  0.19206039  0.50570638  0.05096662    -0.00300
H34         H  0.25360629  0.53770404  0.04219804     0.13500
H35         H  0.20390424  0.54807667  0.06797305     0.13600
N36         N  0.59715948  0.17334502  0.96533145    -0.02800
C37         C  0.59573518  0.20065664  0.95558570    -0.00200
C38         C  0.60739472  0.20234383  0.92828197    -0.23100
C39         C  0.61623707  0.17538921  0.92089534    -0.23300
C40         C  0.60988802  0.15803556  0.94395592    -0.00300
H41         H  0.60916314  0.22122584  0.91509399     0.13500
H42         H  0.62701776  0.16924836  0.90118694     0.13600
Zn43       Zn  0.49424712  0.50381392  0.99901209     1.49700
Zn44       Zn  0.53751572  0.50453767  0.94550427     1.49400
Zn45       Zn  0.54651139  0.46047086  0.99962035     1.49100
Zn46       Zn  0.49432742  0.45109687  0.95377019     1.49500
O47         O  0.51832244  0.47972882  0.97430469    -1.83400
O48         O  0.49649130  0.54533999  0.98771334    -0.74000
O49         O  0.58073602  0.50240274  0.95115247    -0.73900
O50         O  0.54183716  0.47148655  0.04268524    -0.73400
O51         O  0.52534889  0.54663265  0.94976410    -0.74100
O52         O  0.50565739  0.50177386  0.04068744    -0.73700
O53         O  0.58718671  0.47140280  0.98663962    -0.74200
O54         O  0.50748940  0.41049811  0.96390908    -0.73600
O55         O  0.52880173  0.49121442  0.90416992    -0.74400
O56         O  0.54227550  0.41716801  0.99581971    -0.73800
O57         O  0.49807764  0.45538750  0.90975277    -0.74200
O58         O  0.45184483  0.45586012  0.96520064    -0.74200
O59         O  0.45294387  0.49167248  0.99657362    -0.73900
C60         C  0.50921543  0.55934892  0.96799406     0.77800
C61         C  0.59729334  0.48834304  0.96760260     0.78300
C62         C  0.52448940  0.48863240  0.05517591     0.77300
C63         C  0.52650996  0.40053834  0.98080442     0.77700
C64         C  0.51279103  0.47178037  0.89338223     0.78800
C65         C  0.43902419  0.47285860  0.98252119     0.77900
N66         N  0.60548601  0.29154864  0.47112110    -0.02800
C67         C  0.60183907  0.26462471  0.46057014    -0.00200
C68         C  0.61845939  0.26083945  0.43615020    -0.23100
C69         C  0.63292549  0.28593897  0.43153307    -0.23300
C70         C  0.62464879  0.30432021  0.45318995    -0.00300
H71         H  0.62014076  0.24164791  0.42327304     0.13500
H72         H  0.64790150  0.29036592  0.41425882     0.13600
N73         N  0.42635908  0.68297437  0.45802584    -0.02800
C74         C  0.42052005  0.71152948  0.45871385    -0.00200
C75         C  0.39587015  0.71666627  0.47439293    -0.23100
C76         C  0.38632818  0.69088381  0.48426294    -0.23300
C77         C  0.40526295  0.67041421  0.47432403    -0.00300
H78         H  0.38657619  0.73723709  0.47931354     0.13500
H79         H  0.36775838  0.68745778  0.49789061     0.13600
N80         N  0.52117489  0.91939240  0.78018991    -0.02800
C81         C  0.50948836  0.92711265  0.75461560    -0.00200
C82         C  0.48325476  0.91384331  0.75090963    -0.23100
C83         C  0.47851423  0.89735531  0.77472505    -0.23300
C84         C  0.50191138  0.90110988  0.79241219    -0.00300
H85         H  0.46948413  0.91528213  0.73233007     0.13500
H86         H  0.46010373  0.88376001  0.77862392     0.13600
N87         N  0.82298339  0.97252625  0.39267247    -0.02800
C88         C  0.79615572  0.98287097  0.39770862    -0.00200
C89         C  0.79022331  0.00468455  0.37879152    -0.23100
C90         C  0.81388006  0.00793192  0.36153527    -0.23300
C91         C  0.83367959  0.98804866  0.37041283    -0.00300
H92         H  0.77049322  0.01667720  0.37742560     0.13500
H93         H  0.81658131  0.02353512  0.34466289     0.13600
N94         N  0.52872084  0.05691924  0.16133440    -0.02800
C95         C  0.53905247  0.05119470  0.18808885    -0.00200
C96         C  0.56595855  0.06319874  0.19145565    -0.23100
C97         C  0.57237278  0.07720516  0.16645968    -0.23300
C98         C  0.54932192  0.07326034  0.14840280    -0.00300
H99         H  0.57906434  0.06274383  0.21056739     0.13500
H100        H  0.59154630  0.08956650  0.16209933     0.13600
N101        N  0.21306902  0.99282916  0.55396080    -0.02800
C102        C  0.23933642  0.98290283  0.54614078    -0.00200
C103        C  0.24519475  0.95784163  0.56044105    -0.23100
C104        C  0.22194341  0.95216709  0.57774507    -0.23300
C105        C  0.20260984  0.97391393  0.57342477    -0.00300
H106        H  0.26463538  0.94538208  0.55891364     0.13500
H107        H  0.21924075  0.93396979  0.59173362     0.13600
Zn108      Zn  0.49371527  0.01940466  0.45325260     1.49700
Zn109      Zn  0.54689264  0.00277380  0.49391020     1.49400
Zn110      Zn  0.49100012  0.96375651  0.49400336     1.49100
Zn111      Zn  0.53184073  0.96315597  0.43838259     1.49500
O112        O  0.51592353  0.98732663  0.46963489    -1.83400
O113        O  0.50992281  0.05807101  0.46639117    -0.74000
O114        O  0.54165842  0.99227979  0.53624563    -0.73900
O115        O  0.45064442  0.97843601  0.49294159    -0.73400
O116        O  0.54857030  0.04606685  0.49132399    -0.74100
O117        O  0.45155212  0.01687059  0.46515579    -0.73700
O118        O  0.50269588  0.96505404  0.53598700    -0.74200
O119        O  0.51722350  0.92168735  0.44106934    -0.73600
O120        O  0.58530474  0.98792072  0.48029389    -0.74400
O121        O  0.49009052  0.92267036  0.48031265    -0.73800
O122        O  0.57593090  0.96293866  0.44072234    -0.74200
O123        O  0.51951148  0.97872294  0.39925233    -0.74200
O124        O  0.49520049  0.01829133  0.40939664    -0.73900
C125        C  0.53239586  0.06498473  0.48040631     0.77800
C126        C  0.52293183  0.97739428  0.54958653     0.78300
C127        C  0.43801986  0.99939582  0.48126270     0.77300
C128        C  0.50081039  0.90904153  0.45907481     0.77700
C129        C  0.59381978  0.97314155  0.45885943     0.78800
C130        C  0.50551521  0.00063352  0.39117643     0.77900
N131        N  0.11959604  0.27859181  0.95589359    -0.02800
C132        C  0.12330826  0.24980401  0.95571349    -0.00200
C133        C  0.14833607  0.24267842  0.96953945    -0.23100
C134        C  0.16061683  0.26769205  0.97852845    -0.23300
C135        C  0.14255967  0.28955461  0.97031455    -0.00300
H136        H  0.15621727  0.22141816  0.97367149     0.13500
H137        H  0.18048895  0.26960256  0.99028593     0.13600
N138        N  0.32849040  0.96524168  0.06782889    -0.02800
C139        C  0.29964331  0.96459143  0.07335492    -0.00200
C140        C  0.29331632  0.97991205  0.09792120    -0.23100
C141        C  0.31861828  0.99069094  0.10787191    -0.23300
C142        C  0.33992365  0.98204705  0.08898066    -0.00300
H143        H  0.27226619  0.98393299  0.10694118     0.13500
H144        H  0.32110187  0.00419311  0.12661122     0.13600
N145        N  0.01684082  0.05661273  0.28731678    -0.02800
C146        C  0.03033283  0.05090697  0.26194771    -0.00200
C147        C  0.05558091  0.06626227  0.25995099    -0.23100
C148        C  0.05773568  0.08209728  0.28465974    -0.23300
C149        C  0.03377776  0.07590960  0.30111335    -0.00300
H150        H  0.07021127  0.06684795  0.24183187     0.13500
H151        H  0.07478120  0.09691202  0.28994835     0.13600
N152        N  0.95037920  0.67048511  0.96858276    -0.02800
C153        C  0.95662096  0.69653130  0.95698657    -0.00200
C154        C  0.94425154  0.69911903  0.93023155    -0.23100
C155        C  0.92952112  0.67433923  0.92505631    -0.23300
C156        C  0.93339804  0.65722252  0.94870601    -0.00300
H157        H  0.94500085  0.71760345  0.91640137     0.13500
H158        H  0.91684554  0.66944597  0.90624656     0.13600
N159        N  0.72093149  0.98671181  0.88772845    -0.02800
C160        C  0.74677219  0.97455074  0.89383591    -0.00200
C161        C  0.75171833  0.95185555  0.87537570    -0.23100
C162        C  0.72849028  0.94970927  0.85760690    -0.23300
C163        C  0.70983715  0.97110255  0.86560142    -0.00300
H164        H  0.77046555  0.93832513  0.87477968     0.13500
H165        H  0.72512871  0.93364132  0.84120211     0.13600
N166        N  0.02407533  0.90549292  0.66986352    -0.02800
C167        C  0.01816188  0.90402927  0.69856616    -0.00200
C168        C  0.99234524  0.89012930  0.70307960    -0.23100
C169        C  0.98207788  0.88249004  0.67669056    -0.23300
C170        C  0.00192398  0.89171710  0.65659723    -0.00300
H171        H  0.98221695  0.88565392  0.72355729     0.13500
H172        H  0.96279070  0.87022481  0.67266491     0.13600
Zn173      Zn  0.04978406  0.00277005  0.00231641     1.49700
Zn174      Zn  0.00874970  0.00267979  0.94705325     1.49400
Zn175      Zn  0.04968452  0.94913704  0.96043218     1.49100
Zn176      Zn  0.99457295  0.96155000  0.00205725     1.49500
O177        O  0.02535842  0.97888345  0.97791481    -1.83400
O178        O  0.05177474  0.04277485  0.98764947    -0.74000
O179        O  0.02137141  0.98865336  0.90713027    -0.73900
O180        O  0.09090311  0.95016129  0.97567747    -0.73400
O181        O  0.02234230  0.04416188  0.95049459    -0.74100
O182        O  0.09056783  0.98836798  0.00389937    -0.73700
O183        O  0.05129387  0.95341108  0.91691600    -0.74200
O184        O  0.99715195  0.91756678  0.00018815    -0.73600
O185        O  0.96491153  0.00123547  0.94913301    -0.74400
O186        O  0.03270297  0.91018867  0.96888372    -0.73800
O187        O  0.95496002  0.97337533  0.98644510    -0.74200
O188        O  0.99743533  0.97516594  0.04435975    -0.74200
O189        O  0.03452688  0.00496940  0.04279615    -0.73900
C190        C  0.03995233  0.05650731  0.96744552     0.77800
C191        C  0.03871714  0.96929292  0.89872461     0.78300
C192        C  0.10382499  0.96748132  0.99246391     0.77300
C193        C  0.01272220  0.90071058  0.98512484     0.77700
C194        C  0.94665495  0.98885173  0.96548923     0.78800
C195        C  0.01421822  0.99301371  0.05667797     0.77900
N196        N  0.33367322  0.47580893  0.53586741    -0.02800
C197        C  0.30785302  0.46616194  0.52589958    -0.00200
C198        C  0.30570555  0.43702736  0.52887495    -0.23100
C199        C  0.33061888  0.42816134  0.54134034    -0.23300
C200        C  0.34745980  0.45214742  0.54618314    -0.00300
H201        H  0.28750855  0.42372266  0.52338050     0.13500
H202        H  0.33564191  0.40632546  0.54668981     0.13600
N203        N  0.71742989  0.48414377  0.39320134    -0.02800
C204        C  0.74502217  0.49379389  0.39295120    -0.00200
C205        C  0.74727713  0.51765571  0.37571849    -0.23100
C206        C  0.72043609  0.52280131  0.36492017    -0.23300
C207        C  0.70247486  0.50198163  0.37583220    -0.00300
H208        H  0.76656815  0.52972670  0.37106654     0.13500
H209        H  0.71478314  0.53938539  0.34990349     0.13600
N210        N  0.94993873  0.79264115  0.47413870    -0.02800
C211        C  0.94853675  0.76479084  0.46579064    -0.00200
C212        C  0.93530475  0.76250765  0.43936844    -0.23100
C213        C  0.92815374  0.78956248  0.43116820    -0.23300
C214        C  0.93720686  0.80762405  0.45278404    -0.00300
H215        H  0.93086079  0.74307669  0.42755575     0.13500
H216        H  0.91629012  0.79534747  0.41215500     0.13600
N217        N  0.08444945  0.17602689  0.48191556    -0.02800
C218        C  0.08555446  0.20414277  0.48907074    -0.00200
C219        C  0.09812062  0.20762108  0.51566686    -0.23100
C220        C  0.10529632  0.18090615  0.52510632    -0.23300
C221        C  0.09691901  0.16194852  0.50395976    -0.00300
H222        H  0.10218494  0.22757127  0.52670901     0.13500
H223        H  0.11704163  0.17598756  0.54444266     0.13600
N224        N  0.02515853  0.41164422  0.78868869    -0.02800
C225        C  0.03532662  0.41533583  0.76148165    -0.00200
C226        C  0.06281727  0.40466659  0.75910748    -0.23100
C227        C  0.06991773  0.39410531  0.78558391    -0.23300
C228        C  0.04651784  0.39854620  0.80333576    -0.00300
H229        H  0.07606336  0.40412860  0.73994948     0.13500
H230        H  0.08969733  0.38349849  0.79110876     0.13600
N231        N  0.03278661  0.57607034  0.17157802    -0.02800
C232        C  0.03241911  0.58086577  0.20061604    -0.00200
C233        C  0.01693303  0.60517100  0.20694110    -0.23100
C234        C  0.00766909  0.61595946  0.18152098    -0.23300
C235        C  0.01706816  0.59770996  0.16009614    -0.00300
H236        H  0.01195196  0.61368897  0.22801059     0.13500
H237        H  0.99475072  0.63489828  0.17900289     0.13600
Zn238      Zn  0.04866195  0.46297906  0.50127568     1.49700
Zn239      Zn  0.04691998  0.51626798  0.45950994     1.49400
Zn240      Zn  0.00594957  0.46180779  0.44659025     1.49100
Zn241      Zn  0.99231421  0.50167114  0.50211901     1.49500
O242        O  0.02327375  0.48581443  0.47724083    -1.83400
O243        O  0.08931480  0.47873567  0.50197525    -0.74000
O244        O  0.04564654  0.51326136  0.41558055    -0.73900
O245        O  0.01939814  0.42044918  0.45035170    -0.73400
O246        O  0.08934723  0.51569938  0.47254502    -0.74100
O247        O  0.04970703  0.42234649  0.48699207    -0.73700
O248        O  0.01627507  0.47694579  0.40629946    -0.74200
O249        O  0.95267213  0.48977231  0.48713296    -0.73600
O250        O  0.03008225  0.55454542  0.47100432    -0.74400
O251        O  0.96230023  0.46182043  0.44971817    -0.73800
O252        O  0.99403588  0.54505622  0.50098106    -0.74200
O253        O  0.99583014  0.48855671  0.54431157    -0.74200
O254        O  0.03465060  0.46149527  0.54241010    -0.73900
C255        C  0.10253456  0.49934836  0.48991449     0.77800
C256        C  0.03238514  0.49732324  0.39764834     0.78300
C257        C  0.03685127  0.40825826  0.46739408     0.77300
C258        C  0.94423438  0.47396046  0.46638588     0.77700
C259        C  0.00970656  0.56293331  0.48737228     0.78800
C260        C  0.01394825  0.47235855  0.55663522     0.77900
C261        C  0.05608426  0.56016315  0.27476198    -0.26900
C262        C  0.04419316  0.53275270  0.27788622     0.02700
C263        C  0.03287978  0.51927881  0.25305960     0.30800
C264        C  0.03197967  0.53390696  0.22658773    -0.18700
C265        C  0.04247654  0.56194748  0.22419926    -0.28100
C266        C  0.05553725  0.57451781  0.24842790     0.44800
C267        C  0.04231771  0.51983911  0.30748752     0.06000
O268        O  0.02158131  0.49229267  0.25457970    -0.56600
H269        H  0.02127640  0.52405224  0.20846636     0.19000
O270        O  0.06674502  0.60160241  0.24680558    -0.63300
H271        H  0.06447614  0.57143548  0.29323968     0.17400
C272        C  0.06543039  0.52208509  0.32692255     0.29700
C273        C  0.06192067  0.51420289  0.35585627    -0.24200
C274        C  0.03583584  0.50309004  0.36618174    -0.23500
C275        C  0.01328313  0.49895366  0.34641401     0.41100
C276        C  0.01648906  0.50761560  0.31756873    -0.26000
O277        O  0.09186869  0.53127917  0.31760079    -0.57800
H278        H  0.07985323  0.51682076  0.37034834     0.16700
O279        O  0.98765901  0.48737145  0.35521192    -0.59300
H280        H  0.99824487  0.50575533  0.30338516     0.15200
H281        H  0.05423951  0.61368083  0.25910333     0.47000
H282        H  0.09568051  0.54933473  0.32809655     0.42400
H283        H  0.97510415  0.50387824  0.35946051     0.45900
H284        H  0.03837231  0.47941479  0.25518999     0.37400
C285        C  0.99426191  0.47510862  0.63697153    -0.26900
C286        C  0.00979156  0.45181149  0.64765688     0.02700
C287        C  0.02610101  0.43535657  0.62814611     0.30800
C288        C  0.02677079  0.44217521  0.59888523    -0.18700
C289        C  0.01141055  0.46550292  0.58799399    -0.28100
C290        C  0.99476251  0.48185367  0.60744946     0.44800
C291        C  0.00968099  0.44466936  0.67901294     0.06000
O292        O  0.04196946  0.41267988  0.63751719    -0.56600
H293        H  0.03963190  0.42905011  0.58463922     0.19000
O294        O  0.97964995  0.50501779  0.59811170    -0.63300
H295        H  0.98155519  0.48803692  0.65152756     0.17400
C296        C  0.01897627  0.46443976  0.69998501     0.29700
C297        C  0.02428998  0.45537717  0.72827975    -0.24200
C298        C  0.01999862  0.42681519  0.73624109    -0.23500
C299        C  0.00874891  0.40763521  0.71586428     0.41100
C300        C  0.00349264  0.41661465  0.68767213    -0.26000
O301        O  0.02572047  0.49188318  0.69240072    -0.57800
H302        H  0.03386151  0.47017619  0.74341233     0.16700
O303        O  0.00575614  0.37930922  0.72249240    -0.59300
H304        H  0.99617186  0.40109559  0.67201682     0.15200
H305        H  0.95999864  0.49774953  0.59445614     0.47000
H306        H  0.00882883  0.50336578  0.69821741     0.42400
H307        H  0.98498090  0.37652255  0.72619973     0.45900
H308        H  0.06008529  0.42111773  0.64478353     0.37400
C309        C  0.08712119  0.27589877  0.45407469    -0.26900
C310        C  0.05991200  0.28624596  0.46195555     0.02700
C311        C  0.03935246  0.26677982  0.47268997     0.30800
C312        C  0.04694256  0.23829542  0.47776122    -0.18700
C313        C  0.07495849  0.22878498  0.47252574    -0.28100
C314        C  0.09481935  0.24756273  0.45965121     0.44800
C315        C  0.05436237  0.31762669  0.46208733     0.06000
O316        O  0.01249111  0.27584232  0.48052273    -0.56600
H317        H  0.03166773  0.22432482  0.48833893     0.19000
O318        O  0.12241580  0.23890756  0.45426439    -0.63300
H319        H  0.10306216  0.29028869  0.44519996     0.17400
C320        C  0.07296253  0.33641677  0.47674695     0.29700
C321        C  0.06703419  0.36565784  0.47797697    -0.24200
C322        C  0.04255528  0.37705200  0.46483166    -0.23500
C323        C  0.02364962  0.35818812  0.45053485     0.41100
C324        C  0.02975945  0.32886616  0.44904813    -0.26000
O325        O  0.09618713  0.32617143  0.49139414    -0.57800
H326        H  0.08170159  0.37944220  0.48955441     0.16700
O327        O  0.99877319  0.36796345  0.43855029    -0.59300
H328        H  0.01502040  0.31479668  0.43792759     0.15200
H329        H  0.13375583  0.24581352  0.47087275     0.47000
H330        H  0.11313717  0.33139230  0.47955945     0.42400
H331        H  0.98412638  0.36653165  0.45404361     0.45900
H332        H  0.01454791  0.28326357  0.50038497     0.37400
C333        C  0.94923138  0.68911569  0.49130391    -0.26900
C334        C  0.97873837  0.68325984  0.49228566     0.02700
C335        C  0.99826412  0.70634125  0.48955083     0.30800
C336        C  0.98819538  0.73399766  0.48387112    -0.18700
C337        C  0.95874063  0.73919516  0.48121749    -0.28100
C338        C  0.93927023  0.71670711  0.48622753     0.44800
C339        C  0.98854735  0.65287070  0.49336655     0.06000
O340        O  0.02728170  0.70192773  0.49088622    -0.56600
H341        H  0.00346722  0.75094283  0.47958667     0.19000
O342        O  0.91031456  0.72107736  0.48379557    -0.63300
H343        H  0.93367374  0.67198706  0.49267035     0.17400
C344        C  0.97549886  0.63274902  0.51183393     0.29700
C345        C  0.98294044  0.60377468  0.51002241    -0.24200
C346        C  0.00366038  0.59411445  0.49018869    -0.23500
C347        C  0.01766300  0.61451708  0.47271214     0.41100
C348        C  0.00971360  0.64328848  0.47403417    -0.26000
O349        O  0.95599554  0.64132336  0.53228057    -0.57800
H350        H  0.97223426  0.58881719  0.52418534     0.16700
O351        O  0.03852448  0.60658919  0.45343614    -0.59300
H352        H  0.01970368  0.65803477  0.45916426     0.15200
H353        H  0.90364590  0.72569267  0.50354137     0.47000
H354        H  0.93742881  0.63275995  0.52648896     0.42400
H355        H  0.05682416  0.60838348  0.46408298     0.45900
H356        H  0.03152806  0.69979576  0.51159772     0.37400
C357        C  0.79981550  0.47401705  0.44978253    -0.26900
C358        C  0.82441571  0.46959755  0.43259636     0.02700
C359        C  0.82128586  0.46941136  0.40247811     0.30800
C360        C  0.79461045  0.47500913  0.39011014    -0.18700
C361        C  0.77042049  0.48097951  0.40714557    -0.28100
C362        C  0.77295380  0.47965232  0.43724410     0.44800
C363        C  0.85375155  0.46812794  0.44548503     0.06000
O364        O  0.84460393  0.46564148  0.38478891    -0.56600
H365        H  0.79313647  0.47620421  0.36691886     0.19000
O366        O  0.75005342  0.48637587  0.45454181    -0.63300
H367        H  0.80165069  0.47418105  0.47296464     0.17400
C368        C  0.86431420  0.49046188  0.46289001     0.29700
C369        C  0.89345257  0.49142531  0.47050318    -0.24200
C370        C  0.91279812  0.47044740  0.46087655    -0.23500
C371        C  0.90186500  0.44731821  0.44465742     0.41100
C372        C  0.87264390  0.44618104  0.43740832    -0.26000
O373        O  0.84688350  0.51272164  0.47061895    -0.57800
H374        H  0.90116525  0.50947490  0.48287227     0.16700
O375        O  0.91951683  0.42567053  0.43570002    -0.59300
H376        H  0.86491970  0.42857047  0.42441036     0.15200
H377        H  0.74172631  0.46779585  0.46037840     0.47000
H378        H  0.84106281  0.50877548  0.49073439     0.42400
H379        H  0.92424924  0.43006631  0.41538493     0.45900
H380        H  0.85326673  0.48487232  0.38266027     0.37400
C381        C  0.24093430  0.48730478  0.48567430    -0.26900
C382        C  0.22623430  0.50320170  0.50666600     0.02700
C383        C  0.24103894  0.51123672  0.53185030     0.30800
C384        C  0.26920577  0.50165125  0.53659391    -0.18700
C385        C  0.28287813  0.48362514  0.51667320    -0.28100
C386        C  0.26885085  0.47735639  0.49061634     0.44800
C387        C  0.19443846  0.50654452  0.50426469     0.06000
O388        O  0.22744980  0.52674730  0.55287555    -0.56600
H389        H  0.27944308  0.50636104  0.55691708     0.19000
O390        O  0.28141695  0.45958958  0.47079817    -0.63300
H391        H  0.22993017  0.48067117  0.46631255     0.17400
C392        C  0.18150743  0.52122890  0.48137229     0.29700
C393        C  0.15148342  0.51996635  0.47754543    -0.24200
C394        C  0.13388514  0.50369643  0.49606525    -0.23500
C395        C  0.14694687  0.49049635  0.51994079     0.41100
C396        C  0.17674011  0.49191669  0.52372713    -0.26000
O397        O  0.19802335  0.53696701  0.46276757    -0.57800
H398        H  0.14214046  0.53090046  0.45943156     0.16700
O399        O  0.13092760  0.47542035  0.53949406    -0.59300
H400        H  0.18622637  0.48051106  0.54148313     0.15200
H401        H  0.29051935  0.47244305  0.45652686     0.47000
H402        H  0.19997374  0.52501118  0.44526858     0.42400
H403        H  0.12596089  0.48936480  0.55478771     0.45900
H404        H  0.22819125  0.54676841  0.54614813     0.37400
C405        C  0.96231882  0.81146734  0.55166959    -0.26900
C406        C  0.98112679  0.83483097  0.54902829     0.02700
C407        C  0.99131835  0.84247446  0.52165570     0.30800
C408        C  0.98190986  0.82752427  0.49731325    -0.18700
C409        C  0.96230923  0.80480579  0.49977511    -0.28100
C410        C  0.95291651  0.79647826  0.52728308     0.44800
C411        C  0.98803213  0.85250726  0.57460903     0.06000
O412        O  0.00961970  0.86520629  0.51840655    -0.56600
H413        H  0.98923224  0.83419479  0.47625936     0.19000
O414        O  0.93350120  0.77469224  0.53045849    -0.63300
H415        H  0.95423616  0.80541607  0.57265195     0.17400
C416        C  0.96661739  0.86912430  0.58774764     0.29700
C417        C  0.97260961  0.88434968  0.61292391    -0.24200
C418        C  0.99969028  0.88281658  0.62596789    -0.23500
C419        C  0.02154038  0.86708085  0.61213050     0.41100
C420        C  0.01570064  0.85238519  0.58640014    -0.26000
O421        O  0.93960055  0.87028681  0.57628610    -0.57800
H422        H  0.95545301  0.89613462  0.62327334     0.16700
O423        O  0.04800426  0.86422818  0.62444296    -0.59300
H424        H  0.03240395  0.83972823  0.57639030     0.15200
H425        H  0.91441149  0.78371245  0.52852593     0.47000
H426        H  0.92816586  0.85604067  0.58715864     0.42400
H427        H  0.04578525  0.84870055  0.63868506     0.45900
H428        H  0.99701922  0.88199290  0.51592018     0.37400
C429        C  0.03048365  0.96902374  0.81679602    -0.26900
C430        C  0.05025089  0.94791039  0.80851664     0.02700
C431        C  0.06860933  0.93673055  0.82959722     0.30800
C432        C  0.06525567  0.94474606  0.85856903    -0.18700
C433        C  0.04396601  0.96424008  0.86727970    -0.28100
C434        C  0.02737593  0.97735614  0.84571471     0.44800
C435        C  0.04938399  0.93603708  0.77858181     0.06000
O436        O  0.09030525  0.91844660  0.82190940    -0.56600
H437        H  0.07918133  0.93516975  0.87434981     0.19000
O438        O  0.00776380  0.99805543  0.85256604    -0.63300
H439        H  0.01645846  0.97831801  0.80092214     0.17400
C440        C  0.04560396  0.90650580  0.77391620     0.29700
C441        C  0.03921849  0.89615659  0.74645337    -0.24200
C442        C  0.03550194  0.91469488  0.72316153    -0.23500
C443        C  0.04156032  0.94387111  0.72708332     0.41100
C444        C  0.04835734  0.95435572  0.75465957    -0.26000
O445        O  0.04544938  0.88773381  0.79643377    -0.57800
H446        H  0.03453006  0.87363318  0.74390241     0.16700
O447        O  0.03796794  0.96268620  0.70495888    -0.59300
H448        H  0.05127416  0.97709363  0.75765821     0.15200
H449        H  0.98886396  0.98833824  0.85232992     0.47000
H450        H  0.02509143  0.88624118  0.80256219     0.42400
H451        H  0.05761326  0.96671607  0.69771986     0.45900
H452        H  0.08673346  0.90058158  0.83269764     0.37400
C453        C  0.87530000  0.00410255  0.92785503    -0.26900
C454        C  0.85492579  0.99503378  0.94827860     0.02700
C455        C  0.86504380  0.98518620  0.97504901     0.30800
C456        C  0.89468997  0.98366555  0.98048071    -0.18700
C457        C  0.91511493  0.99212751  0.95974320    -0.28100
C458        C  0.90489472  0.00280969  0.93331729     0.44800
C459        C  0.82377535  0.99303510  0.94008091     0.06000
O460        O  0.84618645  0.97649856  0.99600041    -0.56600
H461        H  0.90169129  0.97559812  0.00104270     0.19000
O462        O  0.92358764  0.01132364  0.91215369    -0.63300
H463        H  0.86837093  0.01108555  0.90687983     0.17400
C464        C  0.80963231  0.01509361  0.92508684     0.29700
C465        C  0.78237582  0.01027123  0.91279198    -0.24200
C466        C  0.76890312  0.98357101  0.91507431    -0.23500
C467        C  0.78183319  0.96257419  0.93232509     0.41100
C468        C  0.80890394  0.96728394  0.94441706    -0.26000
O469        O  0.82254286  0.04124335  0.92190979    -0.57800
H470        H  0.77289841  0.02665734  0.89958378     0.16700
O471        O  0.76928595  0.93624157  0.93535020    -0.59300
H472        H  0.81910625  0.94985321  0.95555521     0.15200
H473        H  0.92603125  0.99439665  0.89953798     0.47000
H474        H  0.82682411  0.04305802  0.90109745     0.42400
H475        H  0.75493438  0.93859870  0.95096085     0.45900
H476        H  0.83884161  0.99430819  0.00483615     0.37400
C477        C  0.97109434  0.61942438  0.09766103    -0.26900
C478        C  0.99025695  0.61949886  0.07432960     0.02700
C479        C  0.01839701  0.60911766  0.07877211     0.30800
C480        C  0.02728814  0.60112837  0.10648739    -0.18700
C481        C  0.00787418  0.60148936  0.12970481    -0.28100
C482        C  0.97920877  0.60935750  0.12447039     0.44800
C483        C  0.98051029  0.63151314  0.04622928     0.06000
O484        O  0.03749601  0.60700831  0.05637414    -0.56600
H485        H  0.04948415  0.59543296  0.10981480     0.19000
O486        O  0.95890599  0.60826255  0.14588905    -0.63300
H487        H  0.94962610  0.62779120  0.09548606     0.17400
C488        C  0.95232707  0.62674762  0.03615507     0.29700
C489        C  0.94236363  0.64102977  0.01189252    -0.24200
C490        C  0.96054925  0.65846044  0.99536661    -0.23500
C491        C  0.98920065  0.66209311  0.00457248     0.41100
C492        C  0.99857901  0.64955495  0.03017048    -0.26000
O493        O  0.93419087  0.60795006  0.04968217    -0.57800
H494        H  0.92020602  0.63811830  0.00595194     0.16700
O495        O  0.00861563  0.67719631  0.98849636    -0.59300
H496        H  0.02014899  0.65408665  0.03740544     0.15200
H497        H  0.95242364  0.58809737  0.14636677     0.47000
H498        H  0.94007177  0.58882440  0.04273883     0.42400
H499        H  0.01529538  0.66375978  0.97342973     0.45900
H500        H  0.03377487  0.58802163  0.04766436     0.37400
C501        C  0.96529901  0.76690091  0.99553703    -0.26900
C502        C  0.98963441  0.77815785  0.98138693     0.02700
C503        C  0.00629126  0.75951205  0.96423239     0.30800
C504        C  0.99642754  0.73176888  0.95836576    -0.18700
C505        C  0.97098377  0.72136894  0.97071928    -0.28100
C506        C  0.95622118  0.73862970  0.99060515     0.44800
C507        C  0.99618009  0.80957293  0.98282520     0.06000
O508        O  0.03234053  0.76823290  0.95336883    -0.56600
H509        H  0.00818583  0.71860626  0.94320450     0.19000
O510        O  0.93144020  0.72897713  0.00328275    -0.63300
H511        H  0.95234955  0.78048365  0.00923740     0.17400
C512        C  0.00251265  0.82519300  0.95760332     0.29700
C513        C  0.00858626  0.85442425  0.95908296    -0.24200
C514        C  0.00703873  0.86941191  0.98518222    -0.23500
C515        C  0.99986840  0.85424090  0.01034896     0.41100
C516        C  0.99467119  0.82461456  0.00908190    -0.26000
O517        O  0.00177233  0.81243656  0.93105555    -0.57800
H518        H  0.01353165  0.86570198  0.93938246     0.16700
O519        O  0.99825791  0.86801757  0.03633944    -0.59300
H520        H  0.98956354  0.81335241  0.02873192     0.15200
H521        H  0.93771447  0.71942926  0.02114988     0.47000
H522        H  0.98115608  0.81109651  0.92609961     0.42400
H523        H  0.01830543  0.86901898  0.04333715     0.45900
H524        H  0.03135403  0.76544381  0.93223866     0.37400
C525        C  0.03396142  0.13382637  0.35686481    -0.26900
C526        C  0.03978164  0.11835181  0.38189955     0.02700
C527        C  0.03710477  0.08828215  0.38096577     0.30800
C528        C  0.03132172  0.07430257  0.35477007    -0.18700
C529        C  0.02867442  0.08990753  0.32928566    -0.28100
C530        C  0.02892527  0.11991535  0.33075523     0.44800
C531        C  0.05085134  0.13382956  0.40778773     0.06000
O532        O  0.04217385  0.07223440  0.40495341    -0.56600
H533        H  0.03157240  0.05121829  0.35395292     0.19000
O534        O  0.02688002  0.13585785  0.30621652    -0.63300
H535        H  0.03489968  0.15690236  0.35717508     0.17400
C536        C  0.07350255  0.15390431  0.40527545     0.29700
C537        C  0.08372279  0.16840825  0.42961762    -0.24200
C538        C  0.07206964  0.16299268  0.45677975    -0.23500
C539        C  0.04955467  0.14303947  0.45945319     0.41100
C540        C  0.03903575  0.12872000  0.43513508    -0.26000
O541        O  0.08697577  0.15819589  0.37936073    -0.57800
H542        H  0.10148145  0.18321256  0.42746824     0.16700
O543        O  0.03781095  0.13730007  0.48587084    -0.59300
H544        H  0.02151203  0.11369728  0.43765976     0.15200
H545        H  0.00607401  0.13889380  0.30347817     0.47000
H546        H  0.08162533  0.17774802  0.37343845     0.42400
H547        H  0.02309416  0.15222105  0.48895096     0.45900
H548        H  0.06282247  0.06730244  0.40392461     0.37400
C549        C  0.01885452  0.03214877  0.12849936    -0.26900
C550        C  0.00901266  0.01138205  0.14780519     0.02700
C551        C  0.99915291  0.98508187  0.13692280     0.30800
C552        C  0.99972503  0.97967311  0.10713426    -0.18700
C553        C  0.01072817  0.00003119  0.08782635    -0.28100
C554        C  0.01978804  0.02671682  0.09887094     0.44800
C555        C  0.01017085  0.01741198  0.17921028     0.06000
O556        O  0.98856627  0.96472542  0.15523553    -0.56600
H557        H  0.99242338  0.95915204  0.09924345     0.19000
O558        O  0.02981047  0.04767739  0.08091871    -0.63300
H559        H  0.02640218  0.05254987  0.13652159     0.17400
C560        C  0.03003821  0.00339241  0.19689548     0.29700
C561        C  0.03400681  0.01242348  0.22540283    -0.24200
C562        C  0.01858344  0.03559801  0.23669624    -0.23500
C563        C  0.99808256  0.04900768  0.21926968     0.41100
C564        C  0.99385056  0.03976947  0.19088196    -0.26000
O565        O  0.04718455  0.98226522  0.18589634    -0.57800
H566        H  0.05074755  0.00269585  0.23805704     0.16700
O567        O  0.98396348  0.07281659  0.22884790    -0.59300
H568        H  0.97889406  0.05113059  0.17741134     0.15200
H569        H  0.01273776  0.05923651  0.07609887     0.47000
H570        H  0.06462741  0.99218695  0.17872525     0.42400
H571        H  0.99708750  0.08901266  0.22471575     0.45900
H572        H  0.00414655  0.95053550  0.15712460     0.37400
C573        C  0.18149378  0.98275200  0.01292876    -0.26900
C574        C  0.19304763  0.95522179  0.01462423     0.02700
C575        C  0.17538614  0.93169968  0.00784123     0.30800
C576        C  0.14665617  0.93589958  0.99984287    -0.18700
C577        C  0.13482119  0.96343640  0.99902568    -0.28100
C578        C  0.15275823  0.98697660  0.00533762     0.44800
C579        C  0.22269480  0.95152908  0.02589693     0.06000
O580        O  0.18584515  0.90448153  0.00948983    -0.56600
H581        H  0.13336483  0.91749368  0.99511300     0.19000
O582        O  0.14240102  0.01428996  0.00442621    -0.63300
H583        H  0.19463655  0.00108597  0.01834413     0.17400
C584        C  0.24656742  0.96479729  0.01269023     0.29700
C585        C  0.27317621  0.96585632  0.02680457    -0.24200
C586        C  0.27626155  0.95414630  0.05431881    -0.23500
C587        C  0.25297819  0.93892394  0.06639353     0.41100
C588        C  0.22659455  0.93756435  0.05215710    -0.26000
O589        O  0.24361381  0.97844580  0.98689044    -0.57800
H590        H  0.29060898  0.97803640  0.01738545     0.16700
O591        O  0.25501632  0.92757848  0.09341619    -0.59300
H592        H  0.20852933  0.92734976  0.06270138     0.15200
H593        H  0.14410909  0.02007141  0.98400797     0.47000
H594        H  0.24376022  0.96306188  0.97221095     0.42400
H595        H  0.26219295  0.90793027  0.09043906     0.45900
H596        H  0.19550252  0.90103199  0.99077981     0.37400
C597        C  0.03526874  0.34604629  0.86343237    -0.26900
C598        C  0.05835041  0.35332273  0.88132048     0.02700
C599        C  0.07309116  0.37911423  0.87652220     0.30800
C600        C  0.06672892  0.39564802  0.85239065    -0.18700
C601        C  0.04531902  0.38715570  0.83303245    -0.28100
C602        C  0.02855346  0.36291565  0.83948098     0.44800
C603        C  0.07062696  0.33175705  0.90097416     0.06000
O604        O  0.09570402  0.38682267  0.89362337    -0.56600
H605        H  0.08002810  0.41403450  0.84757177     0.19000
O606        O  0.00732790  0.35411986  0.82114926    -0.63300
H607        H  0.02376124  0.32623122  0.86687538     0.17400
C608        C  0.06565770  0.33234060  0.93085356     0.29700
C609        C  0.08071099  0.31369684  0.94894117    -0.24200
C610        C  0.10063280  0.29428598  0.93744890    -0.23500
C611        C  0.10474971  0.29314808  0.90748306     0.41100
C612        C  0.08978298  0.31167801  0.88953301    -0.26000
O613        O  0.04709299  0.35177927  0.94263589    -0.57800
H614        H  0.07768542  0.31503356  0.97198547     0.16700
O615        O  0.12467798  0.27507099  0.89570215    -0.59300
H616        H  0.09404756  0.31120661  0.86662493     0.15200
H617        H  0.01676256  0.34074072  0.80756423     0.47000
H618        H  0.02774342  0.34333570  0.94004578     0.42400
H619        H  0.14314547  0.28562530  0.89658614     0.45900
H620        H  0.08705193  0.39803699  0.90953950     0.37400
C621        C  0.09492122  0.17951971  0.92932564    -0.26900
C622        C  0.07275038  0.17473845  0.94920687     0.02700
C623        C  0.06377151  0.19729653  0.96711792     0.30800
C624        C  0.07814297  0.22367397  0.96622478    -0.18700
C625        C  0.10190725  0.22767968  0.94800601    -0.28100
C626        C  0.10965209  0.20565269  0.92883299     0.44800
C627        C  0.06261278  0.14514895  0.95425924     0.06000
O628        O  0.04262460  0.19294486  0.98723363    -0.56600
H629        H  0.07250565  0.24001417  0.98175812     0.19000
O630        O  0.13349714  0.20847511  0.91168180    -0.63300
H631        H  0.10231284  0.16221555  0.91571865     0.17400
C632        C  0.04471289  0.13080873  0.93470930     0.29700
C633        C  0.03692487  0.10224153  0.93952864    -0.24200
C634        C  0.04733532  0.08727141  0.96347514    -0.23500
C635        C  0.06550337  0.10190476  0.98294939     0.41100
C636        C  0.07268278  0.13054040  0.97833953    -0.26000
O637        O  0.03445132  0.14464095  0.91102891    -0.57800
H638        H  0.02307118  0.09168489  0.92417263     0.16700
O639        O  0.07640847  0.08859448  0.00667681    -0.59300
H640        H  0.08678833  0.14127391  0.99336807     0.15200
H641        H  0.12601047  0.21156111  0.89204415     0.47000
H642        H  0.04854313  0.14062462  0.89553453     0.42400
H643        H  0.09549082  0.08141990  0.00058267     0.45900
H644        H  0.02500674  0.20089327  0.97861422     0.37400
C645        C  0.17260847  0.04111360  0.50462944    -0.26900
C646        C  0.16213963  0.06168466  0.52400903     0.02700
C647        C  0.17073956  0.06041686  0.55303137     0.30800
C648        C  0.18837164  0.03827570  0.56240842    -0.18700
C649        C  0.19817301  0.01736445  0.54319027    -0.28100
C650        C  0.19058591  0.01912914  0.51405233     0.44800
C651        C  0.14201135  0.08422059  0.51425129     0.06000
O652        O  0.16166756  0.08048730  0.57254995    -0.56600
H653        H  0.19409583  0.03707062  0.58488637     0.19000
O654        O  0.19890536  0.99824300  0.49513014    -0.63300
H655        H  0.16610301  0.04154656  0.48233640     0.17400
C656        C  0.14918872  0.10272978  0.49149209     0.29700
C657        C  0.13215628  0.12670284  0.48608683    -0.24200
C658        C  0.10791378  0.13247551  0.50305871    -0.23500
C659        C  0.09929907  0.11267188  0.52399392     0.41100
C660        C  0.11622797  0.08869175  0.52938771    -0.26000
O661        O  0.17426048  0.09921475  0.47637707    -0.57800
H662        H  0.13924878  0.14206790  0.47021057     0.16700
O663        O  0.07550264  0.11768870  0.54067433    -0.59300
H664        H  0.10992749  0.07426759  0.54643535     0.15200
H665        H  0.21459861  0.00688093  0.48359970     0.47000
H666        H  0.16839273  0.09173011  0.45731736     0.42400
H667        H  0.06027725  0.10527550  0.53252632     0.45900
H668        H  0.17384579  0.09749228  0.56895489     0.37400
C669        C  0.14540977  0.96837039  0.63055175    -0.26900
C670        C  0.12198507  0.95816286  0.61452938     0.02700
C671        C  0.12407798  0.95836531  0.58418816     0.30800
C672        C  0.14979845  0.96659566  0.57067365    -0.18700
C673        C  0.17384843  0.97408983  0.58698042    -0.28100
C674        C  0.17126005  0.97584795  0.61705010     0.44800
C675        C  0.09662004  0.94533120  0.62963154     0.06000
O676        O  0.10185548  0.94872187  0.56754961    -0.56600
H677        H  0.15164291  0.96491758  0.54751269     0.19000
O678        O  0.19449224  0.98301516  0.63357497    -0.63300
H679        H  0.14411062  0.96936248  0.65376662     0.17400
C680        C  0.10024844  0.92514677  0.65181435     0.29700
C681        C  0.07629728  0.91244199  0.66500100    -0.24200
C682        C  0.04842403  0.91914588  0.65630998    -0.23500
C683        C  0.04467455  0.93931912  0.63430744     0.41100
C684        C  0.06856833  0.95235249  0.62132478    -0.26000
O685        O  0.12714992  0.91641102  0.65960255    -0.57800
H686        H  0.07948860  0.89669999  0.68162123     0.16700
O687        O  0.01768927  0.94657282  0.62545624    -0.59300
H688        H  0.06511292  0.96805957  0.60472379     0.15200
H689        H  0.19653738  0.00398207  0.63167818     0.47000
H690        H  0.13022090  0.92433559  0.67913007     0.42400
H691        H  0.01202739  0.96285628  0.63783979     0.45900
H692        H  0.10554749  0.92810384  0.56461812     0.37400
C693        C  0.36655181  0.00090633  0.52042295    -0.26900
C694        C  0.34762223  0.00927529  0.49872246     0.02700
C695        C  0.35874345  0.01550852  0.47120802     0.30800
C696        C  0.38838545  0.01299883  0.46578072    -0.18700
C697        C  0.40707219  0.00357679  0.48732852    -0.28100
C698        C  0.39587402  0.99775362  0.51487649     0.44800
C699        C  0.31630676  0.00909995  0.50519265     0.06000
O700        O  0.34091822  0.02476310  0.44984634    -0.56600
H701        H  0.39664707  0.01774845  0.44452630     0.19000
O702        O  0.41359538  0.98976003  0.53684053    -0.63300
H703        H  0.35840583  0.99599912  0.54169199     0.17400
C704        C  0.29798837  0.98942597  0.49146783     0.29700
C705        C  0.27089652  0.98341978  0.50325855    -0.24200
C706        C  0.26132083  0.99730006  0.52826608    -0.23500
C707        C  0.27837876  0.01905615  0.54025999     0.41100
C708        C  0.30577046  0.02465621  0.52888155    -0.26000
O709        O  0.30770520  0.97339730  0.46874363    -0.57800
H710        H  0.25830934  0.96614003  0.49422253     0.16700
O711        O  0.27002508  0.03241387  0.56516982    -0.59300
H712        H  0.31961939  0.03975790  0.53980338     0.15200
H713        H  0.41182701  0.96871576  0.53789357     0.47000
H714        H  0.29752049  0.98089259  0.45170978     0.42400
H715        H  0.25841457  0.04890299  0.55888771     0.45900
H716        H  0.34145984  0.00973008  0.43481377     0.37400
C717        C  0.46892402  0.00727794  0.13895850    -0.26900
C718        C  0.45244164  0.02472603  0.12095182     0.02700
C719        C  0.46185686  0.05312858  0.11645330     0.30800
C720        C  0.48600203  0.06373629  0.13081905    -0.18700
C721        C  0.50265088  0.04610520  0.14834771    -0.28100
C722        C  0.49420644  0.01736470  0.15164636     0.44800
C723        C  0.42474111  0.01376240  0.10866315     0.06000
O724        O  0.44787321  0.07079937  0.09782207    -0.56600
H725        H  0.49180055  0.08589226  0.12797404     0.19000
O726        O  0.51073744  0.99862517  0.16675591    -0.63300
H727        H  0.46223003  0.98563629  0.14347521     0.17400
C728        C  0.42118837  0.98522603  0.09900671     0.29700
C729        C  0.39379032  0.97479678  0.09169667    -0.24200
C730        C  0.36991356  0.99296315  0.09175109    -0.23500
C731        C  0.37415452  0.02200337  0.09866539     0.41100
C732        C  0.40077561  0.03176637  0.10810249    -0.26000
O733        O  0.44414811  0.96713284  0.09707575    -0.57800
H734        H  0.39118972  0.95236392  0.08676826     0.16700
O735        O  0.35190368  0.04101258  0.09749459    -0.59300
H736        H  0.40219091  0.05348628  0.11587970     0.15200
H737        H  0.52693902  0.99377663  0.15375675     0.47000
H738        H  0.45413626  0.97242235  0.07896996     0.42400
H739        H  0.35115108  0.04715265  0.07715671     0.45900
H740        H  0.45625545  0.06657131  0.07867223     0.37400
C741        C  0.49651863  0.98861361  0.31062141    -0.26900
C742        C  0.50070407  0.01625455  0.29978257     0.02700
C743        C  0.50357563  0.03907332  0.31941632     0.30800
C744        C  0.50383892  0.03388097  0.34913877    -0.18700
C745        C  0.50167074  0.00598189  0.35988925    -0.28100
C746        C  0.49697007  0.98340088  0.34033993     0.44800
C747        C  0.50613872  0.02068886  0.26844325     0.06000
O748        O  0.50758025  0.06639262  0.30973745    -0.56600
H749        H  0.50714777  0.05161215  0.36375587     0.19000
O750        O  0.49223380  0.95622960  0.35011621    -0.63300
H751        H  0.49378283  0.97085894  0.29591647     0.17400
C752        C  0.52988587  0.00753101  0.25514194     0.29700
C753        C  0.53876961  0.01600086  0.22769804    -0.24200
C754        C  0.52401751  0.03717068  0.21258239    -0.23500
C755        C  0.49863713  0.04841698  0.22460738     0.41100
C756        C  0.49001200  0.04037967  0.25251103    -0.26000
O757        O  0.54574461  0.98764695  0.26954520    -0.57800
H758        H  0.55830543  0.00708807  0.21877240     0.16700
O759        O  0.48311613  0.06847236  0.21009499    -0.59300
H760        H  0.47141945  0.05040847  0.26219712     0.15200
H761        H  0.51088926  0.94638765  0.34804160     0.47000
H762        H  0.56077539  0.99867678  0.27970009     0.42400
H763        H  0.49261821  0.08692597  0.21435011     0.45900
H764        H  0.52867340  0.06901786  0.30861625     0.37400
C765        C  0.92074950  0.88075369  0.42567510    -0.26900
C766        C  0.89546018  0.88673311  0.44104004     0.02700
C767        C  0.88806355  0.86954709  0.46472697     0.30800
C768        C  0.90426007  0.84514672  0.47090463    -0.18700
C769        C  0.92799165  0.83777515  0.45379422    -0.28100
C770        C  0.93703491  0.85653521  0.43202155     0.44800
C771        C  0.87530602  0.90853091  0.42992510     0.06000
O772        O  0.86340676  0.87471846  0.48001840    -0.56600
H773        H  0.89676940  0.83064332  0.48740882     0.19000
O774        O  0.96097124  0.85049345  0.41587243    -0.63300
H775        H  0.92701417  0.89406372  0.40771547     0.17400
C776        C  0.86872945  0.93351075  0.44550976     0.29700
C777        C  0.84973191  0.95366885  0.43401862    -0.24200
C778        C  0.83765163  0.94952433  0.40673173    -0.23500
C779        C  0.84408643  0.92449933  0.39133268     0.41100
C780        C  0.86268370  0.90421794  0.40293191    -0.26000
O781        O  0.88158654  0.93892581  0.47139841    -0.57800
H782        H  0.84560869  0.97328282  0.44564884     0.16700
O783        O  0.83323068  0.92043844  0.36429403    -0.59300
H784        H  0.86757982  0.88517011  0.39062764     0.15200
H785        H  0.95380537  0.84030487  0.39865575     0.47000
H786        H  0.90117384  0.94581498  0.46652188     0.42400
H787        H  0.81852248  0.90521205  0.36633542     0.45900
H788        H  0.86968297  0.88539970  0.49732200     0.37400
C789        C  0.89403604  0.99468039  0.31673697    -0.26900
C790        C  0.91723056  0.00108870  0.33471971     0.02700
C791        C  0.91388249  0.99804264  0.36465745     0.30800
C792        C  0.88689262  0.99106358  0.37629540    -0.18700
C793        C  0.86315698  0.98687030  0.35832334    -0.28100
C794        C  0.86723961  0.98745666  0.32830061     0.44800
C795        C  0.94321795  0.01470871  0.32221150     0.06000
O796        O  0.93602143  0.00477841  0.38276553    -0.56600
H797        H  0.88408199  0.99129253  0.39939445     0.19000
O798        O  0.84460907  0.98305862  0.31007954    -0.63300
H799        H  0.89636152  0.99674528  0.29366270     0.17400
C800        C  0.97025205  0.00148096  0.32282506     0.29700
C801        C  0.99426367  0.01536353  0.31095427    -0.24200
C802        C  0.99175155  0.04252489  0.29864121    -0.23500
C803        C  0.96480061  0.05575533  0.29805188     0.41100
C804        C  0.94073977  0.04176284  0.30965099    -0.26000
O805        O  0.97343290  0.97513239  0.33503459    -0.57800
H806        H  0.01502802  0.00512889  0.31158956     0.16700
O807        O  0.96208824  0.08265930  0.28694827    -0.59300
H808        H  0.92008724  0.05226917  0.30924163     0.15200
H809        H  0.84242238  0.96206671  0.30876647     0.47000
H810        H  0.96791144  0.96130552  0.31983678     0.42400
H811        H  0.94774034  0.08104199  0.27136527     0.45900
H812        H  0.94267541  0.98629513  0.39047666     0.37400
C813        C  0.73048786  0.94342901  0.42231238    -0.26900
C814        C  0.71702029  0.96486514  0.43876076     0.02700
C815        C  0.73332802  0.98901273  0.44680434     0.30800
C816        C  0.76149400  0.99234320  0.43668881    -0.18700
C817        C  0.77385018  0.97233156  0.41787609    -0.28100
C818        C  0.75854470  0.94716248  0.41166029     0.44800
C819        C  0.68540326  0.96368211  0.44465628     0.06000
O820        O  0.72115600  0.01081725  0.46229641    -0.56600
H821        H  0.77265673  0.01218658  0.44110231     0.19000
O822        O  0.76933282  0.92780008  0.39235873    -0.63300
H823        H  0.71857079  0.92452667  0.41613929     0.17400
C824        C  0.66561615  0.95872099  0.42227225     0.29700
C825        C  0.63599651  0.96074398  0.42745881    -0.24200
C826        C  0.62527045  0.96839720  0.45469135    -0.23500
C827        C  0.64506364  0.97262097  0.47727834     0.41100
C828        C  0.67465104  0.97006065  0.47219014    -0.26000
O829        O  0.67495212  0.95310742  0.39484364    -0.57800
H830        H  0.62142237  0.95744869  0.40969819     0.16700
O831        O  0.63587254  0.97982717  0.50437915    -0.59300
H832        H  0.68932351  0.97364961  0.48981451     0.15200
H833        H  0.77822249  0.91279513  0.40426254     0.47000
H834        H  0.67911133  0.97203181  0.38632145     0.42400
H835        H  0.63309913  0.96143490  0.51445712     0.45900
H836        H  0.71201343  0.02328648  0.44782908     0.37400
C837        C  0.64886951  0.96639420  0.81247328    -0.26900
C838        C  0.62538889  0.96172506  0.83078843     0.02700
C839        C  0.62908348  0.96458783  0.86066754     0.30800
C840        C  0.65644870  0.97020325  0.87194900    -0.18700
C841        C  0.68035772  0.97294174  0.85366283    -0.28100
C842        C  0.67614825  0.97204819  0.82368126     0.44800
C843        C  0.59800498  0.95119769  0.81851654     0.06000
O844        O  0.60645740  0.96009219  0.87904228    -0.56600
H845        H  0.65928618  0.97050414  0.89503012     0.19000
O846        O  0.69890659  0.97517918  0.80516230    -0.63300
H847        H  0.64626249  0.96442861  0.78943071     0.17400
C848        C  0.57692696  0.97009878  0.80866312     0.29700
C849        C  0.55183296  0.95942040  0.79587568    -0.24200
C850        C  0.54744813  0.92992607  0.79267157    -0.23500
C851        C  0.56868890  0.91106597  0.80240978     0.41100
C852        C  0.59365991  0.92173100  0.81529921    -0.26000
O853        O  0.58052048  0.99896540  0.81185382    -0.57800
H854        H  0.53556821  0.97414543  0.78868929     0.16700
O855        O  0.56547771  0.88219652  0.79898366    -0.59300
H856        H  0.60991206  0.90697034  0.82248196     0.15200
H857        H  0.70037857  0.99598362  0.80168145     0.47000
H858        H  0.58660343  0.00590011  0.79265960     0.42400
H859        H  0.57216881  0.87811013  0.77915454     0.45900
H860        H  0.59836247  0.97927524  0.88274189     0.37400
C861        C  0.50229111  0.96512683  0.62813454    -0.26900
C862        C  0.52872881  0.96831281  0.64217907     0.02700
C863        C  0.55320258  0.97503729  0.62562147     0.30800
C864        C  0.55103757  0.97816102  0.59564877    -0.18700
C865        C  0.52463243  0.97447058  0.58150459    -0.28100
C866        C  0.50007738  0.96809898  0.59824631     0.44800
C867        C  0.53019749  0.96323461  0.67383562     0.06000
O868        O  0.57934211  0.97864354  0.63850096    -0.56600
H869        H  0.57020695  0.98316392  0.58339211     0.19000
O870        O  0.47356666  0.96566655  0.58579718    -0.63300
H871        H  0.48320446  0.95978304  0.64038066     0.17400
C872        C  0.51145142  0.97750617  0.69284569     0.29700
C873        C  0.50796726  0.96785707  0.72115374    -0.24200
C874        C  0.52283811  0.94390129  0.73105799    -0.23500
C875        C  0.54376244  0.93145740  0.71306197     0.41100
C876        C  0.54744774  0.94124714  0.68469629    -0.26000
O877        O  0.49559295  0.00022616  0.68353121    -0.57800
H878        H  0.49168239  0.97759114  0.73464245     0.16700
O879        O  0.55878574  0.90808691  0.72207943    -0.59300
H880        H  0.56210083  0.93006580  0.67050123     0.15200
H881        H  0.46980130  0.94488471  0.58439868     0.47000
H882        H  0.47560736  0.99306266  0.68203961     0.42400
H883        H  0.54810848  0.89136666  0.71450953     0.45900
H884        H  0.58003898  0.99903278  0.64419572     0.37400
C885        C  0.37494758  0.54543096  0.53958615    -0.26900
C886        C  0.37157841  0.55618337  0.51140583     0.02700
C887        C  0.35453286  0.53993313  0.49220230     0.30800
C888        C  0.34306513  0.51360513  0.50053289    -0.18700
C889        C  0.34597757  0.50335077  0.52863897    -0.28100
C890        C  0.36108672  0.52022264  0.54858207     0.44800
C891        C  0.38444576  0.58461221  0.50255098     0.06000
O892        O  0.34810475  0.54970457  0.46529596    -0.56600
H893        H  0.33136237  0.50118251  0.48480624     0.19000
O894        O  0.36277650  0.51218456  0.57680012    -0.63300
H895        H  0.38826971  0.55649173  0.55498204     0.17400
C896        C  0.38605267  0.60793580  0.52189281     0.29700
C897        C  0.39583225  0.63463814  0.51253154    -0.24200
C898        C  0.40232639  0.63994162  0.48349367    -0.23500
C899        C  0.40071018  0.61701567  0.46402002     0.41100
C900        C  0.39339375  0.58949204  0.47385971    -0.26000
O901        O  0.37644249  0.60570528  0.54967930    -0.57800
H902        H  0.39639418  0.65202364  0.52792985     0.16700
O903        O  0.40309688  0.62181131  0.43507354    -0.59300
H904        H  0.39359656  0.57222225  0.45840980     0.15200
H905        H  0.34497611  0.51945237  0.58592478     0.47000
H906        H  0.35543475  0.60877690  0.54871101     0.42400
H907        H  0.41929414  0.60990729  0.42848812     0.45900
H908        H  0.33044427  0.56116183  0.46781998     0.37400
C909        C  0.47884677  0.76767586  0.46100954    -0.26900
C910        C  0.46556614  0.79014494  0.44632102     0.02700
C911        C  0.43988896  0.78466508  0.43154089     0.30800
C912        C  0.42687142  0.75768228  0.43319293    -0.18700
C913        C  0.43921811  0.73559532  0.44926158    -0.28100
C914        C  0.46600981  0.74046926  0.46227865     0.44800
C915        C  0.47618654  0.81995936  0.44978736     0.06000
O916        O  0.42647770  0.80606293  0.41684088    -0.56600
H917        H  0.40605835  0.75451005  0.42341172     0.19000
O918        O  0.47826315  0.71979692  0.47887280    -0.63300
H919        H  0.49845564  0.77165582  0.47276548     0.17400
C920        C  0.46850324  0.83583520  0.47431092     0.29700
C921        C  0.47699944  0.86441122  0.47703477    -0.24200
C922        C  0.49336437  0.87805006  0.45552176    -0.23500
C923        C  0.50119269  0.86193913  0.43089212     0.41100
C924        C  0.49260203  0.83318399  0.42822985    -0.26000
O925        O  0.45166722  0.82387489  0.49533502    -0.57800
H926        H  0.47038264  0.87600019  0.49610498     0.16700
O927        O  0.51699575  0.87400847  0.40916132    -0.59300
H928        H  0.49847399  0.82127579  0.40911027     0.15200
H929        H  0.49104928  0.70911269  0.46560980     0.47000
H930        H  0.46527403  0.81476094  0.50873450     0.42400
H931        H  0.50270472  0.88060289  0.39497302     0.45900
H932        H  0.41275869  0.81455628  0.43076650     0.37400
C933        C  0.67738026  0.36499135  0.45934865    -0.26900
C934        C  0.66376437  0.38583899  0.44281178     0.02700
C935        C  0.63545788  0.38104125  0.43347056     0.30800
C936        C  0.62158969  0.35520843  0.43970186    -0.18700
C937        C  0.63567815  0.33383079  0.45504791    -0.28100
C938        C  0.66358359  0.33902339  0.46530176     0.44800
C939        C  0.67991549  0.41131153  0.43294689     0.06000
O940        O  0.62230768  0.40027688  0.41581038    -0.56600
H941        H  0.60059267  0.35103138  0.43071149     0.21000
O942        O  0.67810507  0.31820966  0.47977136    -0.63300
H943        H  0.69920269  0.36835711  0.46653065     0.17400
C944        C  0.67109469  0.43893433  0.44073560     0.29700
C945        C  0.68410557  0.46272589  0.42803061    -0.24200
C946        C  0.70617674  0.45945095  0.40772126    -0.23500
C947        C  0.71616088  0.43191539  0.40111071     0.41100
C948        C  0.70294484  0.40802650  0.41364187    -0.26000
O949        O  0.64936180  0.44283682  0.46029551    -0.57800
H950        H  0.67688816  0.48385952  0.43390513     0.16700
O951        O  0.73745043  0.42814450  0.38102883    -0.59300
H952        H  0.70992694  0.38686595  0.40741907     0.15200
H953        H  0.68942813  0.30800838  0.46487016     0.47000
H954        H  0.65893997  0.44363082  0.47926207     0.42400
H955        H  0.75443339  0.42178047  0.39200999     0.45900
H956        H  0.60928933  0.41130630  0.42849326     0.37400
C957        C  0.57645427  0.13351888  0.48027972    -0.26900
C958        C  0.55560717  0.15431225  0.48614691     0.02700
C959        C  0.52714968  0.14543284  0.49143940     0.30800
C960        C  0.51970723  0.11634643  0.48970730    -0.18700
C961        C  0.54051706  0.09560117  0.48333658    -0.28100
C962        C  0.56914834  0.10447763  0.47891670     0.44800
C963        C  0.56340587  0.18513887  0.48384960     0.06000
O964        O  0.50642476  0.16508644  0.49804415    -0.56600
H965        H  0.49764582  0.10997854  0.49344625     0.19000
O966        O  0.59000812  0.08502748  0.47204427    -0.63300
H967        H  0.59835201  0.13992570  0.47570576     0.17400
C968        C  0.58443843  0.19767276  0.50160265     0.29700
C969        C  0.59449871  0.22547475  0.49603265    -0.24200
C970        C  0.58426785  0.24095509  0.47248067    -0.23500
C971        C  0.56248652  0.22874614  0.45539671     0.41100
C972        C  0.55200876  0.20130644  0.46134829    -0.26000
O973        O  0.59587576  0.18257728  0.52392752    -0.57800
H974        H  0.61198515  0.23394000  0.50871009     0.16700
O975        O  0.55320999  0.24237398  0.43114966    -0.59300
H976        H  0.53625441  0.19186125  0.44712989     0.15200
H977        H  0.58849307  0.08219459  0.45097588     0.47000
H978        H  0.61431383  0.17499681  0.51651509     0.42400
H979        H  0.54095046  0.25816404  0.43818366     0.45900
H980        H  0.50570947  0.16569485  0.51935324     0.37400
C981        C  0.55134708  0.13172237  0.09293699    -0.26900
C982        C  0.55804498  0.11661893  0.06771736     0.02700
C983        C  0.55850497  0.08648674  0.06860197     0.30800
C984        C  0.55350108  0.07214562  0.09469474    -0.18700
C985        C  0.54799795  0.08748358  0.12003660    -0.28100
C986        C  0.54656027  0.11743264  0.11889033     0.44800
C987        C  0.56656952  0.13270902  0.04139359     0.06000
O988        O  0.56627250  0.07105683  0.04471470    -0.56600
H989        H  0.55548546  0.04915373  0.09544337     0.19000
O990        O  0.54114571  0.13297035  0.14334227    -0.63300
H991        H  0.55070332  0.15481002  0.09269504     0.17400
C992        C  0.55300219  0.12796207  0.01481097     0.29700
C993        C  0.56285271  0.14200577  0.99009741    -0.24200
C994        C  0.58553296  0.16168917  0.99150750    -0.23500
C995        C  0.59809533  0.16770881  0.01821614     0.41100
C996        C  0.58879881  0.15309251  0.04287463    -0.26000
O997        O  0.53010870  0.10965684  0.01274221    -0.57800
H998        H  0.55290161  0.13745579  0.96960637     0.16700
O999        O  0.62061166  0.18649246  0.02005747    -0.59300
H1000       H  0.59944712  0.15719151  0.06311302     0.15200
H1001       H  0.56024955  0.13903712  0.15043731     0.47000
H1002       H  0.51295553  0.12165444  0.01621868     0.42400
H1003       H  0.61201047  0.20469536  0.02664407     0.45900
H1004       H  0.54861775  0.06085831  0.03864096     0.37400
C1005       C  0.68354303  0.03537023  0.94044873    -0.26900
C1006       C  0.67160803  0.05560163  0.92176628     0.02700
C1007       C  0.67906961  0.05446940  0.89238084     0.30800
C1008       C  0.69692559  0.03277414  0.88197777    -0.18700
C1009       C  0.70747761  0.01158143  0.90024501    -0.28100
C1010       C  0.70114913  0.01331841  0.92982682     0.44800
C1011       C  0.65201509  0.07834297  0.93277885     0.06000
O1012       O  0.66953455  0.07495084  0.87377406    -0.56600
H1013       H  0.70188627  0.03190677  0.85922898     0.19000
O1014       O  0.71101469  0.99295971  0.94830392    -0.63300
H1015       H  0.67842651  0.03613314  0.96316353     0.17400
C1016       C  0.62493358  0.08289470  0.92018063     0.29700
C1017       C  0.60966304  0.10795604  0.92617417    -0.24200
C1018       C  0.62044334  0.12829441  0.94552229    -0.23500
C1019       C  0.64581212  0.12223443  0.96053767     0.41100
C1020       C  0.66148746  0.09746394  0.95405117    -0.26000
O1021       O  0.61398377  0.06377962  0.90070493    -0.57800
H1022       H  0.59018500  0.11232262  0.91441440     0.16700
O1023       O  0.65708719  0.14188436  0.97923992    -0.59300
H1024       H  0.68204648  0.09421842  0.96423381     0.15200
H1025       H  0.69688211  0.97713622  0.94713840     0.47000
H1026       H  0.60479831  0.04864918  0.91245597     0.42400
H1027       H  0.65031492  0.13580330  0.99849093     0.45900
H1028       H  0.65604305  0.06500385  0.86066061     0.37400
C1029       C  0.54142534  0.25731231  0.97460372    -0.26900
C1030       C  0.55940569  0.28100222  0.97944625     0.02700
C1031       C  0.58927855  0.27664430  0.98067044     0.30800
C1032       C  0.60072123  0.24937462  0.97596354    -0.18700
C1033       C  0.58285923  0.22593744  0.96990207    -0.28100
C1034       C  0.55296374  0.22997510  0.96986708     0.44800
C1035       C  0.54740008  0.31049419  0.98113394     0.06000
O1036       O  0.60761938  0.29925956  0.98457013    -0.56600
H1037       H  0.62380934  0.24687133  0.97512771     0.19000
O1038       O  0.53501700  0.20794991  0.96247738    -0.63300
H1039       H  0.51843164  0.26022642  0.97343048     0.17400
C1040       C  0.53328251  0.32275758  0.95750919     0.29700
C1041       C  0.52551295  0.35172507  0.95808582    -0.24200
C1042       C  0.53136869  0.36902268  0.98215955    -0.23500
C1043       C  0.54368773  0.35611645  0.00653370     0.41100
C1044       C  0.55191341  0.32731425  0.00573157    -0.26000
O1045       O  0.52874357  0.30712828  0.93297859    -0.57800
H1046       H  0.51595832  0.36094014  0.93912144     0.16700
O1047       O  0.54807246  0.37150810  0.03123402    -0.59300
H1048       H  0.56225141  0.31814287  0.02430181     0.15200
H1049       H  0.53071312  0.19807393  0.98067863     0.47000
H1050       H  0.50883065  0.29984885  0.93472561     0.42400
H1051       H  0.53013753  0.36915817  0.04259584     0.45900
H1052       H  0.61127258  0.30688119  0.96504111     0.37400
C1053       C  0.16640724  0.35356194  0.01425960    -0.26900
C1054       C  0.16311267  0.37647798  0.99529082     0.02700
C1055       C  0.15172596  0.37075446  0.96769877     0.30800
C1056       C  0.14461728  0.34262224  0.95956188    -0.18700
C1057       C  0.14763104  0.31990324  0.97893597    -0.28100
C1058       C  0.15805832  0.32596948  0.00673890     0.44800
C1059       C  0.17248567  0.40567564  0.00478525     0.06000
O1060       O  0.14773764  0.39234452  0.94837491    -0.56600
H1061       H  0.13741274  0.33867919  0.93785735     0.19000
O1062       O  0.16062320  0.30490284  0.02691111    -0.63300
H1063       H  0.17592762  0.35684708  0.03517766     0.17400
C1064       C  0.16716375  0.41539697  0.03313353     0.29700
C1065       C  0.17907377  0.44107056  0.04288450    -0.24200
C1066       C  0.19504530  0.45872548  0.02452406    -0.23500
C1067       C  0.19909108  0.44987698  0.99572906     0.41100
C1068       C  0.18855498  0.42335422  0.98633870    -0.26000
O1069       O  0.15034956  0.39994753  0.05171733    -0.57800
H1070       H  0.17589428  0.44698903  0.06508687     0.16700
O1071       O  0.21306642  0.46701801  0.97638258    -0.59300
H1072       H  0.19337964  0.41652023  0.96461436     0.15200
H1073       H  0.14126719  0.30290311  0.03554595     0.47000
H1074       H  0.13036707  0.40529740  0.04710471     0.42400
H1075       H  0.19897989  0.48185243  0.97110570     0.45900
H1076       H  0.12710431  0.39715570  0.94981749     0.37400
C1077       C  0.11612169  0.52590521  0.06956946    -0.26900
C1078       C  0.11542967  0.51921645  0.09901553     0.02700
C1079       C  0.13756350  0.50236029  0.11033685     0.30800
C1080       C  0.16135315  0.49512804  0.09324035    -0.18700
C1081       C  0.16319798  0.50373010  0.06446102    -0.28100
C1082       C  0.13976460  0.51812499  0.05230469     0.44800
C1083       C  0.09372594  0.53249852  0.11860512     0.06000
O1084       O  0.13634247  0.49352868  0.13839822    -0.56600
H1085       H  0.17931846  0.48437864  0.10306226     0.19000
O1086       O  0.14093549  0.52689591  0.02425611    -0.63300
H1087       H  0.09920340  0.53868966  0.06039469     0.17400
C1088       C  0.10263174  0.55126855  0.14061176     0.29700
C1089       C  0.08237829  0.56392245  0.15900412    -0.24200
C1090       C  0.05296769  0.55860893  0.15578683    -0.23500
C1091       C  0.04396161  0.53970854  0.13394345     0.41100
C1092       C  0.06425110  0.52693939  0.11542315    -0.26000
O1093       O  0.13096807  0.55897716  0.14288059    -0.57800
H1094       H  0.08954486  0.57918302  0.17497861     0.16700
O1095       O  0.01532794  0.53453530  0.12983934    -0.59300
H1096       H  0.05697560  0.51279104  0.09849492     0.15200
H1097       H  0.13565109  0.50981674  0.01276247     0.47000
H1098       H  0.13727246  0.55192007  0.16193626     0.42400
H1099       H  0.01103310  0.51725054  0.14128761     0.45900
H1100       H  0.15238431  0.50340734  0.14828963     0.37400
C1101       C  0.35897922  0.45815111  0.97118935    -0.26900
C1102       C  0.34705322  0.47053318  0.99600364     0.02700
C1103       C  0.36536969  0.48352795  0.01612306     0.30800
C1104       C  0.39507582  0.48367057  0.01158820    -0.18700
C1105       C  0.40730926  0.47114102  0.98687614    -0.28100
C1106       C  0.38885142  0.45819722  0.96661750     0.44800
C1107       C  0.31546074  0.47190997  0.00020506     0.06000
O1108       O  0.35433426  0.49676197  0.04006254    -0.56600
H1109       H  0.40857289  0.49390115  0.02748675     0.19000
O1110       O  0.39957735  0.44674593  0.94165568    -0.63300
H1111       H  0.34505954  0.44864630  0.95521086     0.17400
C1112       C  0.29903076  0.49115449  0.98414334     0.29700
C1113       C  0.27065731  0.49695690  0.99225742    -0.24200
C1114       C  0.25804581  0.48355053  0.01615496    -0.23500
C1115       C  0.27375325  0.46267992  0.03090533     0.41100
C1116       C  0.30235801  0.45714708  0.02303509    -0.26000
O1117       O  0.31118504  0.50599388  0.96181907    -0.57800
H1118       H  0.25905445  0.51346955  0.98104993     0.16700
O1119       O  0.26248662  0.44990999  0.05490667    -0.59300
H1120       H  0.31485232  0.44247841  0.03575898     0.15200
H1121       H  0.40164895  0.42610204  0.94555127     0.47000
H1122       H  0.31959763  0.52331451  0.97067646     0.42400
H1123       H  0.25067378  0.43388692  0.04754984     0.45900
H1124       H  0.35006275  0.51649983  0.03391066     0.37400
C1125       C  0.49569450  0.88295827  0.87156965    -0.26900
C1126       C  0.49490206  0.85290746  0.87031347     0.02700
C1127       C  0.50086984  0.83944205  0.84380316     0.30800
C1128       C  0.50519443  0.85568212  0.81899214    -0.18700
C1129       C  0.50453031  0.88555370  0.81995777    -0.28100
C1130       C  0.50043706  0.89924945  0.84660760     0.44800
C1131       C  0.48542756  0.83574210  0.89576290     0.06000
O1132       O  0.50143185  0.81028306  0.84165866    -0.56600
H1133       H  0.50800881  0.84483850  0.79857137     0.19000
O1134       O  0.49927804  0.92842684  0.84818607    -0.63300
H1135       H  0.49101467  0.89387758  0.89158469     0.17400
C1136       C  0.49713960  0.83999065  0.92337370     0.29700
C1137       C  0.48688999  0.82405975  0.94684111    -0.24200
C1138       C  0.46504122  0.80366449  0.94334691    -0.23500
C1139       C  0.45329572  0.79945364  0.91594382     0.41100
C1140       C  0.46353495  0.81521550  0.89246813    -0.26000
O1141       O  0.51829224  0.85989614  0.92778788    -0.57800
H1142       H  0.49552460  0.82804637  0.96803423     0.16700
O1143       O  0.43088612  0.78085506  0.91214720    -0.59300
H1144       H  0.45357115  0.81205363  0.87172552     0.15200
H1145       H  0.47876421  0.93325311  0.84557997     0.47000
H1146       H  0.53642520  0.85011580  0.92265960     0.42400
H1147       H  0.41337171  0.79228100  0.91570720     0.45900
H1148       H  0.52162148  0.80495581  0.84539812     0.37400
C1149       C  0.38130848  0.86498135  0.98444837    -0.26900
C1150       C  0.39588974  0.88571664  0.00077088     0.02700
C1151       C  0.42538608  0.88171352  0.00624331     0.30800
C1152       C  0.43875996  0.85604537  0.99808537    -0.18700
C1153       C  0.42313175  0.83423899  0.98455519    -0.28100
C1154       C  0.39450262  0.83925788  0.97687522     0.44800
C1155       C  0.37850313  0.90759447  0.01647987     0.06000
O1156       O  0.44036792  0.90099735  0.02258156    -0.56600
H1157       H  0.46059893  0.85213693  0.00480751     0.19000
O1158       O  0.37851678  0.81813844  0.96412986    -0.63300
H1159       H  0.35873603  0.86765814  0.97978036     0.17400
C1160       C  0.38483500  0.93706265  0.01636205     0.29700
C1161       C  0.36730836  0.95622742  0.03194611    -0.24200
C1162       C  0.34406144  0.94632739  0.04864841    -0.23500
C1163       C  0.33799959  0.91686423  0.04864268     0.41100
C1164       C  0.35481713  0.89804028  0.03258040    -0.26000
O1165       O  0.40752676  0.94736628  0.00059614    -0.57800
H1166       H  0.37233175  0.97878072  0.03161316     0.16700
O1167       O  0.31629676  0.90590819  0.06526432    -0.59300
H1168       H  0.34977944  0.87548222  0.03348445     0.15200
H1169       H  0.36841667  0.80835277  0.98015052     0.47000
H1170       H  0.42133937  0.95501082  0.01488514     0.42400
H1171       H  0.32468657  0.90353145  0.08463075     0.45900
H1172       H  0.45465946  0.90963410  0.00930263     0.37400
C1173       C  0.50118207  0.69992084  0.98212532    -0.26900
C1174       C  0.48912922  0.68209020  0.96106970     0.02700
C1175       C  0.46931139  0.69389528  0.94165864     0.30800
C1176       C  0.46042251  0.72244198  0.94487867    -0.18700
C1177       C  0.47114022  0.73964408  0.96718389    -0.28100
C1178       C  0.49234814  0.72829676  0.98528489     0.44800
C1179       C  0.49475254  0.65071870  0.96221628     0.06000
O1180       O  0.45601559  0.67685266  0.92171682    -0.56600
H1181       H  0.44307414  0.73013697  0.93169573     0.19000
O1182       O  0.50210315  0.74379374  0.00832239    -0.63300
H1183       H  0.51630450  0.69127805  0.99735671     0.17400
C1184       C  0.50596654  0.63538063  0.93861739     0.29700
C1185       C  0.51091921  0.60585063  0.94077719    -0.24200
C1186       C  0.50480915  0.59094699  0.96633833    -0.23500
C1187       C  0.49398270  0.60657592  0.99008003     0.41100
C1188       C  0.48916807  0.63598867  0.98786512    -0.26000
O1189       O  0.51243445  0.64904971  0.91341465    -0.57800
H1190       H  0.51934759  0.59454873  0.92225562     0.16700
O1191       O  0.48886293  0.59357197  0.01596553    -0.59300
H1192       H  0.48079058  0.64738518  0.00637076     0.15200
H1193       H  0.51964195  0.75355465  0.00130398     0.47000
H1194       H  0.53176629  0.65743489  0.91635813     0.42400
H1195       H  0.46800379  0.58943469  0.01624384     0.45900
H1196       H  0.46353310  0.68324991  0.90283620     0.37400
C1197       C  0.87453140  0.60187410  0.95078995    -0.26900
C1198       C  0.88878702  0.57776716  0.94013837     0.02700
C1199       C  0.91873637  0.57898534  0.93589451     0.30800
C1200       C  0.93376883  0.60449913  0.94115520    -0.18700
C1201       C  0.91926465  0.62892496  0.95073131    -0.28100
C1202       C  0.88952833  0.62730578  0.95607693     0.44800
C1203       C  0.87188306  0.55227127  0.93150103     0.06000
O1204       O  0.93300859  0.55617703  0.92418806    -0.56600
H1205       H  0.95644260  0.60571287  0.93607505     0.19000
O1206       O  0.87470933  0.65110581  0.96467682    -0.63300
H1207       H  0.85151437  0.60124815  0.95409592     0.17400
C1208       C  0.87556980  0.52588780  0.94524813     0.29700
C1209       C  0.86042820  0.50184160  0.93570516    -0.24200
C1210       C  0.84101761  0.50378337  0.91291481    -0.23500
C1211       C  0.83640527  0.53030458  0.89984968     0.41100
C1212       C  0.85196328  0.55432996  0.90902239    -0.26000
O1213       O  0.89391738  0.52341748  0.96800423    -0.57800
H1214       H  0.86384574  0.48147895  0.94600292     0.16700
O1215       O  0.81791775  0.53254864  0.87718216    -0.59300
H1216       H  0.84887036  0.57451356  0.89825371     0.15200
H1217       H  0.86839777  0.64718649  0.98466579     0.47000
H1218       H  0.88182680  0.52656837  0.98533919     0.42400
H1219       H  0.79994333  0.54025885  0.88554318     0.45900
H1220       H  0.94226820  0.54660306  0.94063622     0.37400
C1221       C  0.90631634  0.47065926  0.84238107    -0.26900
C1222       C  0.92282602  0.44630205  0.84773592     0.02700
C1223       C  0.91380148  0.42716724  0.86913558     0.30800
C1224       C  0.88797199  0.43172503  0.88389909    -0.18700
C1225       C  0.87057630  0.45531108  0.87773948    -0.28100
C1226       C  0.88022675  0.47515267  0.85705494     0.44800
C1227       C  0.94860306  0.43982057  0.83005007     0.06000
O1228       O  0.93002185  0.40373187  0.87556656    -0.56600
H1229       H  0.88101233  0.41619444  0.89966032     0.19000
O1230       O  0.86364167  0.49800525  0.84970350    -0.63300
H1231       H  0.91306901  0.48556898  0.82594310     0.17400
C1232       C  0.94730336  0.41937893  0.80778297     0.29700
C1233       C  0.97243539  0.41093710  0.79336472    -0.24200
C1234       C  0.99903045  0.42262854  0.80100036    -0.23500
C1235       C  0.00014754  0.44389536  0.82242069     0.41100
C1236       C  0.97507029  0.45235299  0.83682083    -0.26000
O1237       O  0.92169457  0.40673544  0.80080548    -0.57800
H1238       H  0.97136705  0.39450804  0.77700192     0.16700
O1239       O  0.02588700  0.45591740  0.82996442    -0.59300
H1240       H  0.97639089  0.46808021  0.85387679     0.15200
H1241       H  0.85097588  0.49095163  0.83417135     0.47000
H1242       H  0.91406925  0.41820368  0.78473688     0.42400
H1243       H  0.02986106  0.47047235  0.81504374     0.45900
H1244       H  0.92279334  0.38833283  0.86285639     0.37400
C1245       C  0.74167625  0.48511932  0.96263464    -0.26900
C1246       C  0.72007679  0.49397984  0.94363852     0.02700
C1247       C  0.72795591  0.50041750  0.91502533     0.30800
C1248       C  0.75616991  0.49591347  0.90541848    -0.18700
C1249       C  0.77693968  0.48451430  0.92369508    -0.28100
C1250       C  0.76979914  0.48014301  0.95280522     0.44800
C1251       C  0.68914122  0.49374111  0.95274124     0.06000
O1252       O  0.70771701  0.50869920  0.89552175    -0.56600
H1253       H  0.76105514  0.49861351  0.88280374     0.19000
O1254       O  0.78932027  0.46831094  0.97114830    -0.63300
H1255       H  0.73636472  0.48052599  0.98482090     0.17400
C1256       C  0.67664384  0.46940681  0.96561035     0.29700
C1257       C  0.64700178  0.46839156  0.97125427    -0.24200
C1258       C  0.62902486  0.49118844  0.96391300    -0.23500
C1259       C  0.64164211  0.51585644  0.95183422     0.41100
C1260       C  0.67132503  0.51702289  0.94654265    -0.26000
O1261       O  0.69281947  0.44560978  0.97073203    -0.57800
H1262       H  0.63789718  0.44910440  0.98029618     0.16700
O1263       O  0.62514397  0.53887100  0.94466317    -0.59300
H1264       H  0.68039532  0.53609351  0.93702811     0.15200
H1265       H  0.80367642  0.48354126  0.97482237     0.47000
H1266       H  0.69499474  0.44484359  0.99187441     0.42400
H1267       H  0.62460684  0.55097813  0.96216699     0.45900
H1268       H  0.70055780  0.49073941  0.88672748     0.37400
C1269       C  0.40257561  0.42867342  0.60166021    -0.26900
C1270       C  0.42679171  0.44557841  0.59549310     0.02700
C1271       C  0.42467590  0.46486646  0.57209833     0.30800
C1272       C  0.39957472  0.46604927  0.55539470    -0.18700
C1273       C  0.37486201  0.45060187  0.56309790    -0.28100
C1274       C  0.37674875  0.43198499  0.58689425     0.44800
C1275       C  0.45391281  0.44189862  0.61292384     0.06000
O1276       O  0.44668582  0.48314585  0.56540281    -0.56600
H1277       H  0.39946900  0.47950451  0.53658953     0.19000
O1278       O  0.35336794  0.41665738  0.59614860    -0.63300
H1279       H  0.40333824  0.41248447  0.61807705     0.17400
C1280       C  0.45321038  0.43443725  0.64249763     0.29700
C1281       C  0.47865135  0.42749321  0.65706293    -0.24200
C1282       C  0.50553665  0.42962169  0.64352847    -0.23500
C1283       C  0.50644041  0.44049203  0.61526997     0.41100
C1284       C  0.48107863  0.44478610  0.59985235    -0.26000
O1285       O  0.42793134  0.43487610  0.65776322    -0.57800
H1286       H  0.47705654  0.41999205  0.67892679     0.16700
O1287       O  0.53207694  0.44711903  0.60234415    -0.59300
H1288       H  0.48309901  0.45005893  0.57736701     0.15200
H1289       H  0.34394526  0.42890885  0.61077755     0.47000
H1290       H  0.42481903  0.41508710  0.66460250     0.42400
H1291       H  0.53531083  0.46760441  0.60666881     0.45900
H1292       H  0.44462502  0.49934420  0.57898924     0.37400
C1293       C  0.58631678  0.37994828  0.57468529    -0.26900
C1294       C  0.56548055  0.36050210  0.56512904     0.02700
C1295       C  0.53892913  0.35922009  0.57974416     0.30800
C1296       C  0.53436777  0.37573887  0.60471610    -0.18700
C1297       C  0.55595289  0.39393454  0.61521786    -0.28100
C1298       C  0.58166474  0.39668034  0.59925268     0.44800
C1299       C  0.57295534  0.34027082  0.54143981     0.06000
O1300       O  0.51825984  0.34019563  0.57117326    -0.56600
H1301       H  0.51462550  0.37304146  0.61678543     0.19000
O1302       O  0.60304810  0.41471345  0.60831580    -0.63300
H1303       H  0.60670668  0.38151147  0.56350092     0.17400
C1304       C  0.55933184  0.34118829  0.51449432     0.29700
C1305       C  0.56901973  0.32366074  0.49183575    -0.24200
C1306       C  0.59214278  0.30495074  0.49568369    -0.23500
C1307       C  0.60514335  0.30346596  0.52276924     0.41100
C1308       C  0.59557178  0.32095844  0.54536920    -0.26000
O1309       O  0.53738970  0.35993934  0.50974776    -0.57800
H1310       H  0.55930486  0.32548097  0.47084615     0.16700
O1311       O  0.62794364  0.28565883  0.52701071    -0.59300
H1312       H  0.60635126  0.31998547  0.56590163     0.15200
H1313       H  0.59747278  0.43382939  0.60131029     0.47000
H1314       H  0.54684405  0.37779771  0.50330277     0.42400
H1315       H  0.64520744  0.29753668  0.52346470     0.45900
H1316       H  0.50375080  0.35180504  0.56109690     0.37400
C1317       C  0.50778015  0.42133103  0.76076120    -0.26900
C1318       C  0.50990725  0.45017569  0.76889454     0.02700
C1319       C  0.51578592  0.47040811  0.74709215     0.30800
C1320       C  0.52183633  0.46142155  0.71868417    -0.18700
C1321       C  0.52156602  0.43236531  0.71125777    -0.28100
C1322       C  0.51327355  0.41248880  0.73242264     0.44800
C1323       C  0.50879066  0.45807842  0.80037199     0.06000
O1324       O  0.51706243  0.49891529  0.75358359    -0.56600
H1325       H  0.52873454  0.47701964  0.70297253     0.19000
O1326       O  0.51335413  0.38386679  0.72627511    -0.63300
H1327       H  0.50376112  0.40517263  0.77683871     0.17400
C1328       C  0.48753586  0.44692187  0.81900055     0.29700
C1329       C  0.48893172  0.45183531  0.84889518    -0.24200
C1330       C  0.51132891  0.46792464  0.86122161    -0.23500
C1331       C  0.53226499  0.47959913  0.84245470     0.41100
C1332       C  0.53082738  0.47470891  0.81257994    -0.26000
O1333       O  0.46479479  0.43179695  0.80806769    -0.57800
H1334       H  0.47229424  0.44288300  0.86249668     0.16700
O1335       O  0.55477350  0.49526525  0.85303170    -0.59300
H1336       H  0.54777259  0.48311746  0.79900694     0.15200
H1337       H  0.49405680  0.37977523  0.71838410     0.47000
H1338       H  0.46736586  0.41194332  0.81484055     0.42400
H1339       H  0.57018879  0.48122110  0.85660420     0.45900
H1340       H  0.49792653  0.50648885  0.74849864     0.37400
C1341       C  0.64070074  0.49433323  0.32423023    -0.26900
C1342       C  0.61820135  0.50695137  0.33983703     0.02700
C1343       C  0.62253557  0.51366932  0.36906264     0.30800
C1344       C  0.64958644  0.50963995  0.38163621    -0.18700
C1345       C  0.67250346  0.49840367  0.36556460    -0.28100
C1346       C  0.66757159  0.48993880  0.33690589     0.44800
C1347       C  0.59145990  0.51578044  0.32485773     0.06000
O1348       O  0.60099372  0.52587533  0.38501541    -0.56600
H1349       H  0.65312382  0.51711673  0.40336549     0.19000
O1350       O  0.68957556  0.47934743  0.32041536    -0.63300
H1351       H  0.63775061  0.48894066  0.30178333     0.17400
C1352       C  0.59231641  0.53715670  0.30359926     0.29700
C1353       C  0.56684173  0.54686207  0.29101141    -0.24200
C1354       C  0.54024830  0.53546997  0.29925811    -0.23500
C1355       C  0.53937862  0.51359444  0.31988124     0.41100
C1356       C  0.56481732  0.50393074  0.33259222    -0.26000
O1357       O  0.61785665  0.54974810  0.29610727    -0.57800
H1358       H  0.56773697  0.56383973  0.27534447     0.16700
O1359       O  0.51370943  0.50124432  0.32732383    -0.59300
H1360       H  0.56374769  0.48730259  0.34865052     0.15200
H1361       H  0.69099249  0.45896000  0.32573752     0.47000
H1362       H  0.62419203  0.53965469  0.27844844     0.42400
H1363       H  0.50733343  0.51149469  0.34486315     0.45900
H1364       H  0.60249650  0.54661508  0.38122655     0.37400
C1365       C  0.50852310  0.61663304  0.35940409    -0.26900
C1366       C  0.48613654  0.61097308  0.37896085     0.02700
C1367       C  0.46958163  0.58606738  0.37521517     0.30800
C1368       C  0.47424503  0.56832678  0.35141562    -0.18700
C1369       C  0.49560172  0.57464182  0.33105439    -0.28100
C1370       C  0.51352058  0.59845778  0.33572187     0.44800
C1371       C  0.47686351  0.63290604  0.40027947     0.06000
O1372       O  0.44677644  0.58043421  0.39300488    -0.56600
H1373       H  0.45977291  0.55055245  0.34777010     0.19000
O1374       O  0.53382598  0.60586404  0.31566919    -0.63300
H1375       H  0.52116759  0.63592743  0.36168346     0.17400
C1376       C  0.47829759  0.62808746  0.43009686     0.29700
C1377       C  0.46344227  0.64603513  0.44935167    -0.24200
C1378       C  0.44668754  0.66871752  0.43921407    -0.23500
C1379       C  0.44725027  0.67477950  0.40950896     0.41100
C1380       C  0.46228573  0.65700183  0.39041045    -0.26000
O1381       O  0.49254472  0.60481349  0.44043865    -0.57800
H1382       H  0.46356382  0.64121717  0.47207617     0.16700
O1383       O  0.43059006  0.69610832  0.39853578    -0.59300
H1384       H  0.46079423  0.66089709  0.36753502     0.15200
H1385       H  0.55230208  0.59933447  0.32375343     0.47000
H1386       H  0.51203766  0.61189164  0.44516052     0.42400
H1387       H  0.44429131  0.71086327  0.39171656     0.45900
H1388       H  0.45451723  0.56796895  0.40822200     0.37400
C1389       C  0.51298037  0.52228838  0.12935092    -0.26900
C1390       C  0.52773384  0.50368765  0.14743194     0.02700
C1391       C  0.54198474  0.48010645  0.13518836     0.30800
C1392       C  0.54109485  0.47536422  0.10523835    -0.18700
C1393       C  0.52598427  0.49392008  0.08699655    -0.28100
C1394       C  0.51209576  0.51775178  0.09960829     0.44800
C1395       C  0.52732065  0.50930643  0.17898547     0.06000
O1396       O  0.55680598  0.46158335  0.15226442    -0.56600
H1397       H  0.55204710  0.45700072  0.09632833     0.19000
O1398       O  0.49753526  0.53699398  0.08311901    -0.63300
H1399       H  0.50188734  0.54051210  0.13842812     0.17400
C1400       C  0.54003491  0.53420197  0.19038449     0.29700
C1401       C  0.53469858  0.54233834  0.21899022    -0.24200
C1402       C  0.51627618  0.52620576  0.23651108    -0.23500
C1403       C  0.50466102  0.50058960  0.22553630     0.41100
C1404       C  0.51051662  0.49211323  0.19712804    -0.26000
O1405       O  0.55582271  0.55193511  0.17303999    -0.57800
H1406       H  0.54284382  0.56264529  0.22662574     0.16700
O1407       O  0.48523224  0.48520633  0.24145260    -0.59300
H1408       H  0.50012243  0.47322203  0.18858684     0.15200
H1409       H  0.51182497  0.55197178  0.07824334     0.47000
H1410       H  0.57549106  0.54403579  0.17318563     0.42400
H1411       H  0.49685867  0.47459195  0.25557265     0.45900
H1412       H  0.57518187  0.47139764  0.15659569     0.37400
loop_ 
_geom_bond_atom_site_label_1 
_geom_bond_atom_site_label_2 
_geom_bond_distance 
_geom_bond_site_symmetry_2 
_ccdc_geom_bond_type 
N1            C5   1.362       .  A
N1            C2   1.362       .  A
N1         C1354   1.442       .  S
C2            C3   1.381       .  A
C2         C1402   1.483       .  S
C3            C4   1.371       .  A
C3            H6   1.082       .  S
C4            C5   1.382       .  A
C4            H7   1.082       .  S
C5         C1369   1.485       .  S
N8           C12   1.372       .  A
N8            C9   1.373       .  A
N8         C1282   1.457       .  S
C9           C10   1.381       .  A
C9         C1321   1.493       .  S
C10          C11   1.366       .  A
C10          H13   1.083       .  S
C11          C12   1.381       .  A
C11          H14   1.082       .  S
C12        C1297   1.495       .  S
N15          C19   1.362       .  A
N15          C16   1.361       .  A
N15        C1210   1.437       .  S
C16          C17   1.380       .  A
C16        C1249   1.483       .  S
C17          C18   1.372       .  A
C17          H20   1.082       .  S
C18          C19   1.383       .  A
C18          H21   1.082       .  S
C19        C1225   1.492       .  S
N22          C26   1.359       .  A
N22          C23   1.365       .  A
N22        C1138   1.441       .  S
C23          C24   1.383   1_556  A
C23        C1177   1.485       .  S
C24          C25   1.370       .  A
C24          H27   1.082       .  S
C25          C26   1.379   1_554  A
C25          H28   1.082       .  S
C26        C1153   1.479       .  S
N29          C33   1.367       .  A
N29          C30   1.366       .  A
N29        C1066   1.450       .  S
C30          C31   1.381       .  A
C30        C1114   1.484       .  S
C31          C32   1.369       .  A
C31          H34   1.082       .  S
C32          C33   1.380       .  A
C32          H35   1.082       .  S
C33        C1081   1.485       .  S
N36          C40   1.360       .  A
N36          C37   1.363       .  A
N36         C994   1.440       .  S
C37          C38   1.382       .  A
C37        C1033   1.485       .  S
C38          C39   1.373       .  A
C38          H41   1.082       .  S
C39          C40   1.380       .  A
C39          H42   1.082       .  S
C40        C1018   1.483       .  S
Zn43         O47   1.961       .  S
Zn43         O48   2.022       .  S
Zn43         O52   2.017   1_556  S
Zn43         O59   2.010       .  S
Zn44         O47   1.986       .  S
Zn44         O49   2.037       .  S
Zn44         O51   2.065       .  S
Zn44         O55   2.063       .  S
Zn45         O47   1.992       .  S
Zn45         O50   2.079   1_556  S
Zn45         O53   2.051       .  S
Zn45         O56   2.047       .  S
Zn46         O47   1.990       .  S
Zn46         O54   2.060       .  S
Zn46         O57   2.066       .  S
Zn46         O58   2.061       .  S
O48          C60   1.274       .  A
O49          C61   1.277       .  A
O50          C62   1.279       .  A
O51          C60   1.278       .  A
O52          C62   1.273       .  A
O53          C61   1.279       .  A
O54          C63   1.280       .  A
O55          C64   1.279       .  A
O56          C63   1.278       .  A
O57          C64   1.280       .  A
O58          C65   1.279       .  A
O59          C65   1.274       .  A
C60        C1186   1.499       .  S
C61        C1258   1.494       .  S
C62        C1393   1.503       .  S
C63        C1042   1.498       .  S
C64        C1330   1.509       .  S
C65        C1105   1.493       .  S
N66          C70   1.359       .  A
N66          C67   1.363       .  A
N66        C1306   1.442       .  S
C67          C68   1.384       .  A
C67         C970   1.485       .  S
C68          C69   1.372       .  A
C68          H71   1.082       .  S
C69          C70   1.378       .  A
C69          H72   1.082       .  S
C70         C937   1.477       .  S
N73          C77   1.372       .  A
N73          C74   1.368       .  A
N73        C1378   1.450       .  S
C74          C75   1.380       .  A
C74         C913   1.490       .  S
C75          C76   1.367       .  A
C75          H78   1.082       .  S
C76          C77   1.383       .  A
C76          H79   1.082       .  S
C77         C898   1.499       .  S
N80          C84   1.363       .  A
N80          C81   1.363       .  A
N80         C850   1.443       .  S
C81          C82   1.382       .  A
C81         C874   1.485       .  S
C82          C83   1.371       .  A
C82          H85   1.082       .  S
C83          C84   1.381       .  A
C83          H86   1.082       .  S
C84        C1129   1.484       .  S
N87          C91   1.360       .  A
N87          C88   1.362       .  A
N87         C778   1.441       .  S
C88          C89   1.382   1_565  A
C88         C817   1.482       .  S
C89          C90   1.369       .  A
C89          H92   1.083       .  S
C90          C91   1.381   1_545  A
C90          H93   1.082       .  S
C91         C793   1.484       .  S
N94          C98   1.365       .  A
N94          C95   1.366       .  A
N94         C721   1.449       .  S
C95          C96   1.383       .  A
C95         C754   1.489       .  S
C96          C97   1.370       .  A
C96          H99   1.082       .  S
C97          C98   1.379       .  A
C97         H100   1.082       .  S
C98         C985   1.484       .  S
N101        C105   1.358       .  A
N101        C102   1.359       .  A
N101        C649   1.440   1_565  S
C102        C103   1.382       .  A
C102        C706   1.480       .  S
C103        C104   1.373       .  A
C103        H106   1.082       .  S
C104        C105   1.380       .  A
C104        H107   1.082       .  S
C105        C673   1.479       .  S
Zn108       O112   1.987   1_545  S
Zn108       O113   2.054       .  S
Zn108       O117   2.043       .  S
Zn108       O124   2.043       .  S
Zn109       O112   1.972   1_545  S
Zn109       O114   2.046   1_545  S
Zn109       O116   2.036       .  S
Zn109       O120   2.022   1_545  S
Zn110       O112   1.961       .  S
Zn110       O115   2.007       .  S
Zn110       O118   2.033       .  S
Zn110       O121   2.028       .  S
Zn111       O112   1.983       .  S
Zn111       O119   2.063       .  S
Zn111       O122   2.059       .  S
Zn111       O123   2.051       .  S
O113        C125   1.277       .  A
O114        C126   1.276       .  A
O115        C127   1.273       .  A
O116        C125   1.276       .  A
O117        C127   1.276   1_545  A
O118        C126   1.275       .  A
O119        C128   1.278       .  A
O120        C129   1.275       .  A
O121        C128   1.276       .  A
O122        C129   1.280       .  A
O123        C130   1.279   1_565  A
O124        C130   1.277       .  A
C125        C961   1.490       .  S
C126        C865   1.495       .  S
C127        C697   1.483   1_565  S
C128        C922   1.502       .  S
C129        C826   1.496       .  S
C130        C745   1.491       .  S
N131        C135   1.365       .  A
N131        C132   1.362       .  A
N131        C610   1.442       .  S
C132        C133   1.379       .  A
C132        C625   1.481       .  S
C133        C134   1.369       .  A
C133        H136   1.082       .  S
C134        C135   1.386       .  A
C134        H137   1.082       .  S
C135       C1057   1.496       .  S
N138        C142   1.368       .  A
N138        C139   1.368       .  A
N138       C1162   1.450       .  S
C139        C140   1.379       .  A
C139        C586   1.489       .  S
C140        C141   1.364       .  A
C140        H143   1.082       .  S
C141        C142   1.384       .  A
C141        H144   1.082   1_565  S
C142        C730   1.493       .  S
N145        C149   1.360       .  A
N145        C146   1.361       .  A
N145        C802   1.440   1_455  S
C146        C147   1.381       .  A
C146        C562   1.481       .  S
C147        C148   1.371       .  A
C147        H150   1.082       .  S
C148        C149   1.382       .  A
C148        H151   1.082       .  S
C149        C529   1.483       .  S
N152        C156   1.367       .  A
N152        C153   1.367       .  A
N152        C490   1.453       .  S
C153        C154   1.381       .  A
C153        C505   1.486       .  S
C154        C155   1.369       .  A
C154        H157   1.082       .  S
C155        C156   1.378       .  A
C155        H158   1.082       .  S
C156       C1201   1.483       .  S
N159        C163   1.364       .  A
N159        C160   1.367       .  A
N159       C1009   1.446   1_565  S
C160        C161   1.385       .  A
C160        C466   1.492       .  S
C161        C162   1.370       .  A
C161        H164   1.082       .  S
C162        C163   1.379       .  A
C162        H165   1.082       .  S
C163        C841   1.488       .  S
N166        C170   1.365       .  A
N166        C167   1.365       .  A
N166        C682   1.445       .  S
C167        C168   1.382   1_455  A
C167        C442   1.489       .  S
C168        C169   1.367       .  A
C168        H171   1.082       .  S
C169        C170   1.382   1_655  A
C169        H172   1.082       .  S
C170        C418   1.488   1_455  S
Zn173       O177   1.959   1_544  S
Zn173       O178   2.001   1_554  S
Zn173       O182   2.022   1_545  S
Zn173       O189   2.013       .  S
Zn174       O177   1.985   1_545  S
Zn174       O179   2.053   1_545  S
Zn174       O181   2.050       .  S
Zn174       O185   2.047   1_455  S
Zn175       O177   1.972       .  S
Zn175       O180   2.053       .  S
Zn175       O183   2.037       .  S
Zn175       O186   2.027       .  S
Zn176       O177   1.991   1_654  S
Zn176       O184   2.068       .  S
Zn176       O187   2.067   1_554  S
Zn176       O188   2.073       .  S
O178        C190   1.272       .  A
O179        C191   1.277       .  A
O180        C192   1.277       .  A
O181        C190   1.277       .  A
O182        C192   1.274   1_554  A
O183        C191   1.277       .  A
O184        C193   1.280   1_654  A
O185        C194   1.278   1_545  A
O186        C193   1.276       .  A
O187        C194   1.281       .  A
O188        C195   1.280   1_655  A
O189        C195   1.273   1_545  A
C190        C634   1.494       .  S
C191        C433   1.501       .  S
C192        C577   1.492       .  S
C193        C514   1.491       .  S
C194        C457   1.505       .  S
C195        C553   1.494   1_565  S
N196        C200   1.374       .  A
N196        C197   1.367       .  A
N196        C889   1.451       .  S
C197        C198   1.377       .  A
C197        C385   1.492       .  S
C198        C199   1.368       .  A
C198        H201   1.082       .  S
C199        C200   1.388       .  A
C199        H202   1.082       .  S
C200       C1273   1.507       .  S
N203        C207   1.362       .  A
N203        C204   1.362       .  A
N203        C946   1.439       .  S
C204        C205   1.383       .  A
C204        C361   1.489       .  S
C205        C206   1.374       .  A
C205        H208   1.082       .  S
C206        C207   1.381       .  A
C206        H209   1.082       .  S
C207       C1345   1.488       .  S
N210        C214   1.360       .  A
N210        C211   1.363       .  A
N210        C409   1.443       .  S
C211        C212   1.383       .  A
C211        C337   1.483       .  S
C212        C213   1.370       .  A
C212        H215   1.082       .  S
C213        C214   1.380       .  A
C213        H216   1.082       .  S
C214        C769   1.480       .  S
N217        C221   1.357       .  A
N217        C218   1.360       .  A
N217        C538   1.440       .  S
C218        C219   1.381       .  A
C218        C313   1.480       .  S
C219        C220   1.373       .  A
C219        H222   1.082       .  S
C220        C221   1.381       .  A
C220        H223   1.082       .  S
C221        C658   1.477       .  S
N224        C228   1.360       .  A
N224        C225   1.361       .  A
N224       C1234   1.440   1_455  S
C225        C226   1.382       .  A
C225        C298   1.483       .  S
C226        C227   1.373       .  A
C226        H229   1.082       .  S
C227        C228   1.381       .  A
C227        H230   1.082       .  S
C228        C601   1.485       .  S
N231        C235   1.367       .  A
N231        C232   1.369       .  A
N231       C1090   1.446       .  S
C232        C233   1.382       .  A
C232        C265   1.493       .  S
C233        C234   1.362       .  A
C233        H236   1.082       .  S
C234        C235   1.382       .  A
C234        H237   1.082   1_455  S
C235        C481   1.492       .  S
Zn238       O242   1.958       .  S
Zn238       O243   2.032       .  S
Zn238       O247   2.017       .  S
Zn238       O254   2.021       .  S
Zn239       O242   1.981       .  S
Zn239       O244   2.050       .  S
Zn239       O246   2.073       .  S
Zn239       O250   2.031       .  S
Zn240       O242   1.987       .  S
Zn240       O245   2.050       .  S
Zn240       O248   2.062       .  S
Zn240       O251   2.040   1_455  S
Zn241       O242   1.990   1_655  S
Zn241       O249   2.054       .  S
Zn241       O252   2.037       .  S
Zn241       O253   2.068       .  S
O243        C255   1.275       .  A
O244        C256   1.279       .  A
O245        C257   1.278       .  A
O246        C255   1.278       .  A
O247        C257   1.275       .  A
O248        C256   1.278       .  A
O249        C258   1.278       .  A
O250        C259   1.277       .  A
O251        C258   1.276       .  A
O252        C259   1.278   1_655  A
O253        C260   1.278   1_655  A
O254        C260   1.274       .  A
C255        C394   1.504       .  S
C256        C274   1.498       .  S
C257        C322   1.493       .  S
C258        C370   1.498       .  S
C259        C346   1.496       .  S
C260        C289   1.500       .  S
C261        C262   1.406       .  A
C261        C266   1.401       .  A
C261        H271   1.082       .  S
C262        C263   1.418       .  A
C262        C267   1.509       .  S
C263        C264   1.414       .  A
C263        O268   1.371       .  S
C264        C265   1.406       .  A
C264        H269   1.083       .  S
C265        C266   1.411       .  A
C266        O270   1.374       .  S
C267        C272   1.414       .  A
C267        C276   1.411       .  A
O268        H284   0.991       .  S
O270        H281   0.992       .  S
C272        C273   1.407       .  A
C272        O277   1.373       .  S
C273        C274   1.405       .  A
C273        H278   1.084       .  S
C274        C275   1.413       .  A
C275        C276   1.411       .  A
C275        O279   1.372   1_455  S
C276        H280   1.083   1_455  S
O277        H282   0.992       .  S
O279        H283   0.991       .  S
C285        C286   1.407   1_655  A
C285        C290   1.412       .  A
C285        H295   1.083       .  S
C286        C287   1.411       .  A
C286        C291   1.499       .  S
C287        C288   1.401       .  A
C287        O292   1.372       .  S
C288        C289   1.408       .  A
C288        H293   1.083       .  S
C289        C290   1.415   1_455  A
C290        O294   1.371       .  S
C291        C296   1.412       .  A
C291        C300   1.406       .  A
O292        H308   0.992       .  S
O294        H305   0.992       .  S
C296        C297   1.409       .  A
C296        O301   1.371       .  S
C297        C298   1.405       .  A
C297        H302   1.084       .  S
C298        C299   1.407       .  A
C299        C300   1.403       .  A
C299        O303   1.372       .  S
C300        H304   1.083   1_455  S
O301        H306   0.992       .  S
O303        H307   0.991   1_455  S
C309        C310   1.406       .  A
C309        C314   1.404       .  A
C309        H319   1.083       .  S
C310        C311   1.412       .  A
C310        C315   1.495       .  S
C311        C312   1.405       .  A
C311        O316   1.371       .  S
C312        C313   1.402       .  A
C312        H317   1.084       .  S
C313        C314   1.409       .  A
C314        O318   1.372       .  S
C315        C320   1.411       .  A
C315        C324   1.406       .  A
O316        H332   0.992       .  S
O318        H329   0.992       .  S
C320        C321   1.401       .  A
C320        O325   1.372       .  S
C321        C322   1.406       .  A
C321        H326   1.083       .  S
C322        C323   1.414       .  A
C323        C324   1.407       .  A
C323        O327   1.371   1_455  S
C324        H328   1.083       .  S
O325        H330   0.991       .  S
O327        H331   0.993       .  S
C333        C334   1.405       .  A
C333        C338   1.398       .  A
C333        H343   1.082       .  S
C334        C335   1.417       .  A
C334        C339   1.500       .  S
C335        C336   1.408       .  A
C335        O340   1.371   1_655  S
C336        C337   1.402       .  A
C336        H341   1.083   1_655  S
C337        C338   1.408       .  A
C338        O342   1.372       .  S
C339        C344   1.413       .  A
C339        C348   1.406   1_655  A
O340        H356   0.991       .  S
O342        H353   0.992       .  S
C344        C345   1.406       .  A
C344        O349   1.373       .  S
C345        C346   1.408   1_655  A
C345        H350   1.083       .  S
C346        C347   1.414       .  A
C347        C348   1.402       .  A
C347        O351   1.371       .  S
C348        H352   1.083       .  S
O349        H354   0.991       .  S
O351        H355   0.992       .  S
C357        C358   1.410       .  A
C357        C362   1.411       .  A
C357        H367   1.083       .  S
C358        C359   1.410       .  A
C358        C363   1.499       .  S
C359        C360   1.400       .  A
C359        O364   1.372       .  S
C360        C361   1.404       .  A
C360        H365   1.084       .  S
C361        C362   1.408       .  A
C362        O366   1.371       .  S
C363        C368   1.411       .  A
C363        C372   1.406       .  A
O364        H380   0.992       .  S
O366        H377   0.991       .  S
C368        C369   1.407       .  A
C368        O373   1.371       .  S
C369        C370   1.408       .  A
C369        H374   1.083       .  S
C370        C371   1.414       .  A
C371        C372   1.406       .  A
C371        O375   1.372       .  S
C372        H376   1.084       .  S
O373        H378   0.991       .  S
O375        H379   0.992       .  S
C381        C382   1.404       .  A
C381        C386   1.405       .  A
C381        H391   1.083       .  S
C382        C383   1.413       .  A
C382        C387   1.496       .  S
C383        C384   1.409       .  A
C383        O388   1.371       .  S
C384        C385   1.405       .  A
C384        H389   1.084       .  S
C385        C386   1.411       .  A
C386        O390   1.371       .  S
C387        C392   1.411       .  A
C387        C396   1.402       .  A
O388        H404   0.992       .  S
O390        H401   0.992       .  S
C392        C393   1.413       .  A
C392        O397   1.372       .  S
C393        C394   1.411       .  A
C393        H398   1.083       .  S
C394        C395   1.416       .  A
C395        C396   1.403       .  A
C395        O399   1.371       .  S
C396        H400   1.084       .  S
O397        H402   0.991       .  S
O399        H403   0.992       .  S
C405        C406   1.406       .  A
C405        C410   1.404       .  A
C405        H415   1.084       .  S
C406        C407   1.405       .  A
C406        C411   1.484       .  S
C407        C408   1.402       .  A
C407        O412   1.371   1_655  S
C408        C409   1.406       .  A
C408        H413   1.083       .  S
C409        C410   1.407       .  A
C410        O414   1.370       .  S
C411        C416   1.405       .  A
C411        C420   1.405   1_655  A
O412        H428   0.992   1_455  S
O414        H425   0.992       .  S
C416        C417   1.399       .  A
C416        O421   1.372       .  S
C417        C418   1.406       .  A
C417        H422   1.084       .  S
C418        C419   1.412   1_655  A
C419        C420   1.407       .  A
C419        O423   1.371       .  S
C420        H424   1.083       .  S
O421        H426   0.992       .  S
O423        H427   0.992       .  S
C429        C430   1.407       .  A
C429        C434   1.407       .  A
C429        H439   1.083       .  S
C430        C431   1.410       .  A
C430        C435   1.499       .  S
C431        C432   1.407       .  A
C431        O436   1.374       .  S
C432        C433   1.409       .  A
C432        H437   1.083       .  S
C433        C434   1.415       .  A
C434        O438   1.372       .  S
C435        C440   1.412       .  A
C435        C444   1.410       .  A
O436        H452   0.992       .  S
O438        H449   0.991   1_455  S
C440        C441   1.399       .  A
C440        O445   1.372       .  S
C441        C442   1.405       .  A
C441        H446   1.084       .  S
C442        C443   1.408       .  A
C443        C444   1.410       .  A
C443        O447   1.370       .  S
C444        H448   1.083       .  S
O445        H450   0.992       .  S
O447        H451   0.992       .  S
C453        C454   1.406   1_545  A
C453        C458   1.406       .  A
C453        H463   1.083       .  S
C454        C455   1.415       .  A
C454        C459   1.506       .  S
C455        C456   1.409       .  A
C455        O460   1.372       .  S
C456        C457   1.409       .  A
C456        H461   1.083   1_556  S
C457        C458   1.416   1_565  A
C458        O462   1.371       .  S
C459        C464   1.417   1_565  A
C459        C468   1.405       .  A
O460        H476   0.991   1_556  S
O462        H473   0.992   1_545  S
C464        C465   1.414       .  A
C464        O469   1.372       .  S
C465        C466   1.403   1_545  A
C465        H470   1.083       .  S
C466        C467   1.412       .  A
C467        C468   1.401       .  A
C467        O471   1.372       .  S
C468        H472   1.083       .  S
O469        H474   0.992       .  S
O471        H475   0.991       .  S
C477        C478   1.403       .  A
C477        C482   1.391       .  A
C477        H487   1.082       .  S
C478        C479   1.418   1_655  A
C478        C483   1.500       .  S
C479        C480   1.410       .  A
C479        O484   1.371       .  S
C480        C481   1.406       .  A
C480        H485   1.082       .  S
C481        C482   1.411   1_455  A
C482        O486   1.372       .  S
C483        C488   1.414       .  A
C483        C492   1.406       .  A
O484        H500   0.992       .  S
O486        H497   0.992       .  S
C488        C489   1.398       .  A
C488        O493   1.372       .  S
C489        C490   1.404   1_554  A
C489        H494   1.079       .  S
C490        C491   1.415   1_556  A
C491        C492   1.404       .  A
C491        O495   1.369   1_654  S
C492        H496   1.082   1_655  S
O493        H498   0.991       .  S
O495        H499   0.991       .  S
C501        C502   1.411       .  A
C501        C506   1.409       .  A
C501        H511   1.083   1_556  S
C502        C503   1.414   1_655  A
C502        C507   1.505       .  S
C503        C504   1.405   1_455  A
C503        O508   1.375       .  S
C504        C505   1.402       .  A
C504        H509   1.084   1_655  S
C505        C506   1.406       .  A
C506        O510   1.371   1_556  S
C507        C512   1.416   1_655  A
C507        C516   1.410   1_556  A
O508        H524   0.993       .  S
O510        H521   0.992       .  S
C512        C513   1.400       .  A
C512        O517   1.371       .  S
C513        C514   1.403       .  A
C513        H518   1.084       .  S
C514        C515   1.411   1_456  A
C515        C516   1.411       .  A
C515        O519   1.371       .  S
C516        H520   1.083       .  S
O517        H522   0.992   1_455  S
O519        H523   0.992   1_655  S
C525        C526   1.404       .  A
C525        C530   1.398       .  A
C525        H535   1.083       .  S
C526        C527   1.416       .  A
C526        C531   1.497       .  S
C527        C528   1.409       .  A
C527        O532   1.371       .  S
C528        C529   1.403       .  A
C528        H533   1.083       .  S
C529        C530   1.409       .  A
C530        O534   1.372       .  S
C531        C536   1.417       .  A
C531        C540   1.405       .  A
O532        H548   0.992       .  S
O534        H545   0.990       .  S
C536        C537   1.404       .  A
C536        O541   1.372       .  S
C537        C538   1.397       .  A
C537        H542   1.083       .  S
C538        C539   1.409       .  A
C539        C540   1.404       .  A
C539        O543   1.371       .  S
C540        H544   1.083       .  S
O541        H546   0.992       .  S
O543        H547   0.992       .  S
C549        C550   1.402       .  A
C549        C554   1.402       .  A
C549        H559   1.084       .  S
C550        C551   1.408   1_445  A
C550        C555   1.489       .  S
C551        C552   1.409       .  A
C551        O556   1.371       .  S
C552        C553   1.407   1_665  A
C552        H557   1.083       .  S
C553        C554   1.415       .  A
C554        O558   1.372       .  S
C555        C560   1.409       .  A
C555        C564   1.404   1_455  A
O556        H572   0.992   1_655  S
O558        H569   0.992       .  S
C560        C561   1.404       .  A
C560        O565   1.372   1_545  S
C561        C562   1.404       .  A
C561        H566   1.084       .  S
C562        C563   1.409   1_455  A
C563        C564   1.404       .  A
C563        O567   1.370       .  S
C564        H568   1.084       .  S
O565        H570   0.992       .  S
O567        H571   0.992       .  S
C573        C574   1.404       .  A
C573        C578   1.403       .  A
C573        H583   1.084   1_565  S
C574        C575   1.410       .  A
C574        C579   1.492       .  S
C575        C576   1.407   1_554  A
C575        O580   1.371       .  S
C576        C577   1.407       .  A
C576        H581   1.083       .  S
C577        C578   1.413   1_556  A
C578        O582   1.372   1_565  S
C579        C584   1.412       .  A
C579        C588   1.402       .  A
O580        H596   0.991   1_554  S
O582        H593   0.992   1_554  S
C584        C585   1.408       .  A
C584        O589   1.371   1_554  S
C585        C586   1.404       .  A
C585        H590   1.083       .  S
C586        C587   1.412       .  A
C587        C588   1.402       .  A
C587        O591   1.372       .  S
C588        H592   1.084       .  S
O589        H594   0.992       .  S
O591        H595   0.991       .  S
C597        C598   1.405       .  A
C597        C602   1.407       .  A
C597        H607   1.083       .  S
C598        C599   1.407       .  A
C598        C603   1.485       .  S
C599        C600   1.401       .  A
C599        O604   1.371       .  S
C600        C601   1.404       .  A
C600        H605   1.084       .  S
C601        C602   1.410       .  A
C602        O606   1.372       .  S
C603        C608   1.409       .  A
C603        C612   1.402       .  A
O604        H620   0.992       .  S
O606        H617   0.992       .  S
C608        C609   1.408       .  A
C608        O613   1.371       .  S
C609        C610   1.405       .  A
C609        H614   1.083       .  S
C610        C611   1.408       .  A
C611        C612   1.399       .  A
C611        O615   1.371       .  S
C612        H616   1.084       .  S
O613        H618   0.992       .  S
O615        H619   0.993       .  S
C621        C622   1.402       .  A
C621        C626   1.403       .  A
C621        H631   1.084       .  S
C622        C623   1.408       .  A
C622        C627   1.484       .  S
C623        C624   1.405       .  A
C623        O628   1.371       .  S
C624        C625   1.404       .  A
C624        H629   1.084       .  S
C625        C626   1.409       .  A
C626        O630   1.372       .  S
C627        C632   1.406       .  A
C627        C636   1.400       .  A
O628        H644   0.991       .  S
O630        H641   0.992       .  S
C632        C633   1.405       .  A
C632        O637   1.371       .  S
C633        C634   1.409       .  A
C633        H638   1.083       .  S
C634        C635   1.417       .  A
C635        C636   1.400       .  A
C635        O639   1.372   1_556  S
C636        H640   1.084       .  S
O637        H642   0.991       .  S
O639        H643   0.992       .  S
C645        C646   1.405       .  A
C645        C650   1.405       .  A
C645        H655   1.083       .  S
C646        C647   1.413       .  A
C646        C651   1.490       .  S
C647        C648   1.400       .  A
C647        O652   1.372       .  S
C648        C649   1.401       .  A
C648        H653   1.083       .  S
C649        C650   1.406       .  A
C650        O654   1.371   1_545  S
C651        C656   1.411       .  A
C651        C660   1.406       .  A
O652        H668   0.992       .  S
O654        H665   0.991   1_565  S
C656        C657   1.404       .  A
C656        O661   1.371       .  S
C657        C658   1.402       .  A
C657        H662   1.084       .  S
C658        C659   1.405       .  A
C659        C660   1.401       .  A
C659        O663   1.371       .  S
C660        H664   1.084       .  S
O661        H666   0.992       .  S
O663        H667   0.992       .  S
C669        C670   1.407       .  A
C669        C674   1.400       .  A
C669        H679   1.083       .  S
C670        C671   1.415       .  A
C670        C675   1.498       .  S
C671        C672   1.405       .  A
C671        O676   1.371       .  S
C672        C673   1.400       .  A
C672        H677   1.084       .  S
C673        C674   1.406       .  A
C674        O678   1.372       .  S
C675        C680   1.415       .  A
C675        C684   1.407       .  A
O676        H692   0.992       .  S
O678        H689   0.992   1_565  S
C680        C681   1.403       .  A
C680        O685   1.372       .  S
C681        C682   1.401       .  A
C681        H686   1.083       .  S
C682        C683   1.409       .  A
C683        C684   1.404       .  A
C683        O687   1.371       .  S
C684        H688   1.083       .  S
O685        H690   0.992       .  S
O687        H691   0.991       .  S
C693        C694   1.403       .  A
C693        C698   1.398   1_545  A
C693        H703   1.084   1_545  S
C694        C695   1.411       .  A
C694        C699   1.489       .  S
C695        C696   1.409       .  A
C695        O700   1.372       .  S
C696        C697   1.406       .  A
C696        H701   1.083       .  S
C697        C698   1.409   1_545  A
C698        O702   1.372       .  S
C699        C704   1.409   1_545  A
C699        C708   1.407       .  A
O700        H716   0.992       .  S
O702        H713   0.992       .  S
C704        C705   1.403       .  A
C704        O709   1.371       .  S
C705        C706   1.403       .  A
C705        H710   1.084       .  S
C706        C707   1.407   1_565  A
C707        C708   1.404       .  A
C707        O711   1.371       .  S
C708        H712   1.084       .  S
O709        H714   0.993       .  S
O711        H715   0.992       .  S
C717        C718   1.407       .  A
C717        C722   1.401       .  A
C717        H727   1.082   1_545  S
C718        C719   1.417       .  A
C718        C723   1.503       .  S
C719        C720   1.401       .  A
C719        O724   1.371       .  S
C720        C721   1.404       .  A
C720        H725   1.081       .  S
C721        C722   1.412       .  A
C722        O726   1.370   1_545  S
C723        C728   1.420   1_545  A
C723        C732   1.404       .  A
O724        H740   0.991       .  S
O726        H737   0.992       .  S
C728        C729   1.409       .  A
C728        O733   1.371       .  S
C729        C730   1.405       .  A
C729        H734   1.082       .  S
C730        C731   1.412   1_565  A
C731        C732   1.394       .  A
C731        O735   1.372       .  S
C732        H736   1.082       .  S
O733        H738   0.993       .  S
O735        H739   0.992       .  S
C741        C742   1.406   1_565  A
C741        C746   1.406       .  A
C741        H751   1.083       .  S
C742        C743   1.411       .  A
C742        C747   1.495       .  S
C743        C744   1.406       .  A
C743        O748   1.372       .  S
C744        C745   1.406       .  A
C744        H749   1.084       .  S
C745        C746   1.411   1_545  A
C746        O750   1.372       .  S
C747        C752   1.409       .  A
C747        C756   1.409       .  A
O748        H764   0.992       .  S
O750        H761   0.990       .  S
C752        C753   1.399       .  A
C752        O757   1.372   1_545  S
C753        C754   1.404       .  A
C753        H758   1.084       .  S
C754        C755   1.410       .  A
C755        C756   1.410       .  A
C755        O759   1.371       .  S
C756        H760   1.083       .  S
O757        H762   0.990       .  S
O759        H763   0.991       .  S
C765        C766   1.404       .  A
C765        C770   1.402       .  A
C765        H775   1.084       .  S
C766        C767   1.409       .  A
C766        C771   1.488       .  S
C767        C768   1.405       .  A
C767        O772   1.371       .  S
C768        C769   1.403       .  A
C768        H773   1.084       .  S
C769        C770   1.407       .  A
C770        O774   1.372       .  S
C771        C776   1.409       .  A
C771        C780   1.404       .  A
O772        H788   0.992       .  S
O774        H785   0.990       .  S
C776        C777   1.407       .  A
C776        O781   1.371       .  S
C777        C778   1.405       .  A
C777        H782   1.083       .  S
C778        C779   1.405       .  A
C779        C780   1.402       .  A
C779        O783   1.371       .  S
C780        H784   1.084       .  S
O781        H786   0.993       .  S
O783        H787   0.993       .  S
C789        C790   1.402   1_565  A
C789        C794   1.399       .  A
C789        H799   1.084       .  S
C790        C791   1.409   1_545  A
C790        C795   1.485       .  S
C791        C792   1.405       .  A
C791        O796   1.371   1_565  S
C792        C793   1.404       .  A
C792        H797   1.083       .  S
C793        C794   1.410       .  A
C794        O798   1.372       .  S
C795        C800   1.408       .  A
C795        C804   1.405       .  A
O796        H812   0.991   1_545  S
O798        H809   0.991       .  S
C800        C801   1.405       .  A
C800        O805   1.371   1_545  S
C801        C802   1.405       .  A
C801        H806   1.083   1_655  S
C802        C803   1.404       .  A
C803        C804   1.404       .  A
C803        O807   1.372       .  S
C804        H808   1.084       .  S
O805        H810   0.992       .  S
O807        H811   0.992       .  S
C813        C814   1.409       .  A
C813        C818   1.407       .  A
C813        H823   1.083       .  S
C814        C815   1.412       .  A
C814        C819   1.499       .  S
C815        C816   1.401       .  A
C815        O820   1.372   1_565  S
C816        C817   1.404       .  A
C816        H821   1.084   1_565  S
C817        C818   1.407       .  A
C818        O822   1.370       .  S
C819        C824   1.413       .  A
C819        C828   1.405       .  A
O820        H836   0.993       .  S
O822        H833   0.991       .  S
C824        C825   1.404       .  A
C824        O829   1.372       .  S
C825        C826   1.406       .  A
C825        H830   1.083       .  S
C826        C827   1.416       .  A
C827        C828   1.404       .  A
C827        O831   1.372       .  S
C828        H832   1.083       .  S
O829        H834   0.992       .  S
O831        H835   0.991       .  S
C837        C838   1.401       .  A
C837        C842   1.401       .  A
C837        H847   1.084       .  S
C838        C839   1.408       .  A
C838        C843   1.484       .  S
C839        C840   1.406       .  A
C839        O844   1.371       .  S
C840        C841   1.405       .  A
C840        H845   1.083       .  S
C841        C842   1.411       .  A
C842        O846   1.371       .  S
C843        C848   1.406       .  A
C843        C852   1.404       .  A
O844        H860   0.991       .  S
O846        H857   0.992       .  S
C848        C849   1.405       .  A
C848        O853   1.371       .  S
C849        C850   1.405       .  A
C849        H854   1.083       .  S
C850        C851   1.409       .  A
C851        C852   1.402       .  A
C851        O855   1.371       .  S
C852        H856   1.084       .  S
O853        H858   0.992   1_565  S
O855        H859   0.991       .  S
C861        C862   1.406       .  A
C861        C866   1.403       .  A
C861        H871   1.083       .  S
C862        C863   1.409       .  A
C862        C867   1.496       .  S
C863        C864   1.408       .  A
C863        O868   1.371       .  S
C864        C865   1.409       .  A
C864        H869   1.083       .  S
C865        C866   1.413       .  A
C866        O870   1.372       .  S
C867        C872   1.409       .  A
C867        C876   1.408       .  A
O868        H884   0.992       .  S
O870        H881   0.992       .  S
C872        C873   1.403       .  A
C872        O877   1.373   1_565  S
C873        C874   1.404       .  A
C873        H878   1.084       .  S
C874        C875   1.409       .  A
C875        C876   1.409       .  A
C875        O879   1.372       .  S
C876        H880   1.083       .  S
O877        H882   0.992   1_545  S
O879        H883   0.992       .  S
C885        C886   1.417       .  A
C885        C890   1.409       .  A
C885        H895   1.081       .  S
C886        C887   1.417       .  A
C886        C891   1.518       .  S
C887        C888   1.399       .  A
C887        O892   1.371       .  S
C888        C889   1.403       .  A
C888        H893   1.082       .  S
C889        C890   1.408       .  A
C890        O894   1.371       .  S
C891        C896   1.416       .  A
C891        C900   1.416       .  A
O892        H908   0.991       .  S
O894        H905   0.991       .  S
C896        C897   1.402       .  A
C896        O901   1.371       .  S
C897        C898   1.407       .  A
C897        H902   1.084       .  S
C898        C899   1.406       .  A
C899        C900   1.412       .  A
C899        O903   1.371       .  S
C900        H904   1.081       .  S
O901        H906   0.992       .  S
O903        H907   0.988       .  S
C909        C910   1.406       .  A
C909        C914   1.409       .  A
C909        H919   1.083       .  S
C910        C911   1.406       .  A
C910        C915   1.490       .  S
C911        C912   1.404       .  A
C911        O916   1.372       .  S
C912        C913   1.407       .  A
C912        H917   1.084       .  S
C913        C914   1.409       .  A
C914        O918   1.371       .  S
C915        C920   1.406       .  A
C915        C924   1.404       .  A
O916        H932   0.992       .  S
O918        H929   0.992       .  S
C920        C921   1.402       .  A
C920        O925   1.372       .  S
C921        C922   1.410       .  A
C921        H926   1.083       .  S
C922        C923   1.418       .  A
C923        C924   1.411       .  A
C923        O927   1.371       .  S
C924        H928   1.083       .  S
O925        H930   0.991       .  S
O927        H931   0.992       .  S
C933        C934   1.403       .  A
C933        C938   1.403       .  A
C933        H943   1.084       .  S
C934        C935   1.409       .  A
C934        C939   1.483       .  S
C935        C936   1.402       .  A
C935        O940   1.372       .  S
C936        C937   1.401       .  A
C936        H941   1.084       .  S
C937        C938   1.408       .  A
C938        O942   1.371       .  S
C939        C944   1.406       .  A
C939        C948   1.405       .  A
O940        H956   0.990       .  S
O942        H953   0.992       .  S
C944        C945   1.400       .  A
C944        O949   1.371       .  S
C945        C946   1.402       .  A
C945        H950   1.082       .  S
C946        C947   1.407       .  A
C947        C948   1.404       .  A
C947        O951   1.371       .  S
C948        H952   1.084       .  S
O949        H954   0.992       .  S
O951        H955   0.992       .  S
C957        C958   1.405       .  A
C957        C962   1.404       .  A
C957        H967   1.083       .  S
C958        C959   1.410       .  A
C958        C963   1.494       .  S
C959        C960   1.409       .  A
C959        O964   1.371       .  S
C960        C961   1.407       .  A
C960        H965   1.083       .  S
C961        C962   1.411       .  A
C962        O966   1.372       .  S
C963        C968   1.411       .  A
C963        C972   1.404       .  A
O964        H980   0.993       .  S
O966        H977   0.992       .  S
C968        C969   1.409       .  A
C968        O973   1.371       .  S
C969        C970   1.404       .  A
C969        H974   1.082       .  S
C970        C971   1.412       .  A
C971        C972   1.403       .  A
C971        O975   1.372       .  S
C972        H976   1.084       .  S
O973        H978   0.991       .  S
O975        H979   0.991       .  S
C981        C982   1.403       .  A
C981        C986   1.400       .  A
C981        H991   1.084       .  S
C982        C983   1.414       .  A
C982        C987   1.493       .  S
C983        C984   1.409       .  A
C983        O988   1.372       .  S
C984        C985   1.402       .  A
C984        H989   1.083       .  S
C985        C986   1.408       .  A
C986        O990   1.372       .  S
C987        C992   1.409       .  A
C987        C996   1.409       .  A
O988       H1004   0.992       .  S
O990       H1001   0.992       .  S
C992        C993   1.402   1_554  A
C992        O997   1.371       .  S
C993        C994   1.403       .  A
C993        H998   1.083       .  S
C994        C995   1.404   1_556  A
C995        C996   1.405       .  A
C995        O999   1.371       .  S
C996       H1000   1.083       .  S
O997       H1002   0.992       .  S
O999       H1003   0.992       .  S
C1005      C1006   1.408       .  A
C1005      C1010   1.409       .  A
C1005      H1015   1.083       .  S
C1006      C1007   1.410       .  A
C1006      C1011   1.494       .  S
C1007      C1008   1.401       .  A
C1007      O1012   1.373       .  S
C1008      C1009   1.403       .  A
C1008      H1013   1.083       .  S
C1009      C1010   1.409       .  A
C1010      O1014   1.370   1_545  S
C1011      C1016   1.413       .  A
C1011      C1020   1.405       .  A
O1012      H1028   0.993       .  S
O1014      H1025   0.992       .  S
C1016      C1017   1.403       .  A
C1016      O1021   1.372       .  S
C1017      C1018   1.403       .  A
C1017      H1022   1.084       .  S
C1018      C1019   1.408       .  A
C1019      C1020   1.406       .  A
C1019      O1023   1.371       .  S
C1020      H1024   1.083       .  S
O1021      H1026   0.992       .  S
O1023      H1027   0.991       .  S
C1029      C1030   1.407       .  A
C1029      C1034   1.409       .  A
C1029      H1039   1.083       .  S
C1030      C1031   1.410       .  A
C1030      C1035   1.496       .  S
C1031      C1032   1.404       .  A
C1031      O1036   1.372       .  S
C1032      C1033   1.405       .  A
C1032      H1037   1.084       .  S
C1033      C1034   1.408       .  A
C1034      O1038   1.371       .  S
C1035      C1040   1.411       .  A
C1035      C1044   1.404   1_556  A
O1036      H1052   0.992       .  S
O1038      H1049   0.987       .  S
C1040      C1041   1.408       .  A
C1040      O1045   1.371       .  S
C1041      C1042   1.408       .  A
C1041      H1046   1.083       .  S
C1042      C1043   1.414   1_556  A
C1043      C1044   1.406       .  A
C1043      O1047   1.371       .  S
C1044      H1048   1.083       .  S
O1045      H1050   0.991       .  S
O1047      H1051   0.993       .  S
C1053      C1054   1.403   1_554  A
C1053      C1058   1.394       .  A
C1053      H1063   1.083       .  S
C1054      C1055   1.417       .  A
C1054      C1059   1.501   1_556  S
C1055      C1056   1.410       .  A
C1055      O1060   1.371       .  S
C1056      C1057   1.407       .  A
C1056      H1061   1.081       .  S
C1057      C1058   1.413   1_556  A
C1058      O1062   1.372       .  S
C1059      C1064   1.415       .  A
C1059      C1068   1.407   1_554  A
O1060      H1076   0.991       .  S
O1062      H1073   0.990       .  S
C1064      C1065   1.399       .  A
C1064      O1069   1.372       .  S
C1065      C1066   1.402       .  A
C1065      H1070   1.079       .  S
C1066      C1067   1.413   1_554  A
C1067      C1068   1.405       .  A
C1067      O1071   1.370       .  S
C1068      H1072   1.082       .  S
O1069      H1074   0.991       .  S
O1071      H1075   0.991       .  S
C1077      C1078   1.408       .  A
C1077      C1082   1.409       .  A
C1077      H1087   1.083       .  S
C1078      C1079   1.408       .  A
C1078      C1083   1.495       .  S
C1079      C1080   1.404       .  A
C1079      O1084   1.373       .  S
C1080      C1081   1.403       .  A
C1080      H1085   1.084       .  S
C1081      C1082   1.409       .  A
C1082      O1086   1.371       .  S
C1083      C1088   1.411       .  A
C1083      C1092   1.406       .  A
O1084      H1100   0.993       .  S
O1086      H1097   0.993       .  S
C1088      C1089   1.403       .  A
C1088      O1093   1.373       .  S
C1089      C1090   1.402       .  A
C1089      H1094   1.083       .  S
C1090      C1091   1.411       .  A
C1091      C1092   1.410       .  A
C1091      O1095   1.370       .  S
C1092      H1096   1.083       .  S
O1093      H1098   0.994       .  S
O1095      H1099   0.991       .  S
C1101      C1102   1.404       .  A
C1101      C1106   1.408       .  A
C1101      H1111   1.083       .  S
C1102      C1103   1.406   1_556  A
C1102      C1107   1.487   1_556  S
C1103      C1104   1.400       .  A
C1103      O1108   1.372       .  S
C1104      C1105   1.409   1_554  A
C1104      H1109   1.083       .  S
C1105      C1106   1.414       .  A
C1106      O1110   1.371       .  S
C1107      C1112   1.406   1_554  A
C1107      C1116   1.406       .  A
O1108      H1124   0.991       .  S
O1110      H1121   0.991       .  S
C1112      C1113   1.401       .  A
C1112      O1117   1.372       .  S
C1113      C1114   1.405   1_556  A
C1113      H1118   1.084       .  S
C1114      C1115   1.408       .  A
C1115      C1116   1.406       .  A
C1115      O1119   1.371       .  S
C1116      H1120   1.083       .  S
O1117      H1122   0.990       .  S
O1119      H1123   0.991       .  S
C1125      C1126   1.411       .  A
C1125      C1130   1.409       .  A
C1125      H1135   1.083       .  S
C1126      C1127   1.411       .  A
C1126      C1131   1.499       .  S
C1127      C1128   1.399       .  A
C1127      O1132   1.371       .  S
C1128      C1129   1.402       .  A
C1128      H1133   1.084       .  S
C1129      C1130   1.407       .  A
C1130      O1134   1.371       .  S
C1131      C1136   1.412       .  A
C1131      C1140   1.409       .  A
O1132      H1148   0.991       .  S
O1134      H1145   0.992       .  S
C1136      C1137   1.407       .  A
C1136      O1141   1.371       .  S
C1137      C1138   1.404       .  A
C1137      H1142   1.083       .  S
C1138      C1139   1.404       .  A
C1139      C1140   1.402       .  A
C1139      O1143   1.370       .  S
C1140      H1144   1.083       .  S
O1141      H1146   0.991       .  S
O1143      H1147   0.991       .  S
C1149      C1150   1.407   1_556  A
C1149      C1154   1.399       .  A
C1149      H1159   1.084       .  S
C1150      C1151   1.414       .  A
C1150      C1155   1.496       .  S
C1151      C1152   1.408   1_554  A
C1151      O1156   1.371       .  S
C1152      C1153   1.403       .  A
C1152      H1157   1.083   1_556  S
C1153      C1154   1.405       .  A
C1154      O1158   1.372       .  S
C1155      C1160   1.412       .  A
C1155      C1164   1.404       .  A
O1156      H1172   0.993       .  S
O1158      H1169   0.993       .  S
C1160      C1161   1.413       .  A
C1160      O1165   1.372       .  S
C1161      C1162   1.409       .  A
C1161      H1166   1.083       .  S
C1162      C1163   1.409       .  A
C1163      C1164   1.395       .  A
C1163      O1167   1.370       .  S
C1164      H1168   1.084       .  S
O1165      H1170   0.993       .  S
O1167      H1171   0.992       .  S
C1173      C1174   1.404       .  A
C1173      C1178   1.402       .  A
C1173      H1183   1.084       .  S
C1174      C1175   1.412       .  A
C1174      C1179   1.497       .  S
C1175      C1176   1.410       .  A
C1175      O1180   1.372       .  S
C1176      C1177   1.405       .  A
C1176      H1181   1.082       .  S
C1177      C1178   1.410       .  A
C1178      O1182   1.372   1_556  S
C1179      C1184   1.410       .  A
C1179      C1188   1.405       .  A
O1180      H1196   0.992       .  S
O1182      H1193   0.990       .  S
C1184      C1185   1.409       .  A
C1184      O1189   1.371       .  S
C1185      C1186   1.410       .  A
C1185      H1190   1.083       .  S
C1186      C1187   1.416       .  A
C1187      C1188   1.403       .  A
C1187      O1191   1.372   1_556  S
C1188      H1192   1.084   1_556  S
O1189      H1194   0.992       .  S
O1191      H1195   0.991       .  S
C1197      C1198   1.401       .  A
C1197      C1202   1.402       .  A
C1197      H1207   1.084       .  S
C1198      C1199   1.410       .  A
C1198      C1203   1.485       .  S
C1199      C1200   1.406       .  A
C1199      O1204   1.372       .  S
C1200      C1201   1.403       .  A
C1200      H1205   1.083       .  S
C1201      C1202   1.409       .  A
C1202      O1206   1.372       .  S
C1203      C1208   1.407       .  A
C1203      C1212   1.407       .  A
O1204      H1220   0.991       .  S
O1206      H1217   0.992       .  S
C1208      C1209   1.400       .  A
C1208      O1213   1.371       .  S
C1209      C1210   1.402       .  A
C1209      H1214   1.083       .  S
C1210      C1211   1.405       .  A
C1211      C1212   1.404       .  A
C1211      O1215   1.371       .  S
C1212      H1216   1.084       .  S
O1213      H1218   0.993       .  S
O1215      H1219   0.991       .  S
C1221      C1222   1.404       .  A
C1221      C1226   1.408       .  A
C1221      H1231   1.083       .  S
C1222      C1223   1.405       .  A
C1222      C1227   1.485       .  S
C1223      C1224   1.400       .  A
C1223      O1228   1.372       .  S
C1224      C1225   1.406       .  A
C1224      H1229   1.084       .  S
C1225      C1226   1.412       .  A
C1226      O1230   1.370       .  S
C1227      C1232   1.411       .  A
C1227      C1236   1.402       .  A
O1228      H1244   0.991       .  S
O1230      H1241   0.991       .  S
C1232      C1233   1.405       .  A
C1232      O1237   1.371       .  S
C1233      C1234   1.401       .  A
C1233      H1238   1.083       .  S
C1234      C1235   1.409   1_655  A
C1235      C1236   1.402   1_455  A
C1235      O1239   1.371       .  S
C1236      H1240   1.083       .  S
O1237      H1242   0.991       .  S
O1239      H1243   0.992       .  S
C1245      C1246   1.409       .  A
C1245      C1250   1.407       .  A
C1245      H1255   1.083       .  S
C1246      C1247   1.413       .  A
C1246      C1251   1.501       .  S
C1247      C1248   1.404       .  A
C1247      O1252   1.371       .  S
C1248      C1249   1.402       .  A
C1248      H1253   1.084       .  S
C1249      C1250   1.409       .  A
C1250      O1254   1.372       .  S
C1251      C1256   1.413       .  A
C1251      C1260   1.407       .  A
O1252      H1268   0.993       .  S
O1254      H1265   0.992       .  S
C1256      C1257   1.406       .  A
C1256      O1261   1.372       .  S
C1257      C1258   1.406       .  A
C1257      H1262   1.083       .  S
C1258      C1259   1.413       .  A
C1259      C1260   1.405       .  A
C1259      O1263   1.371       .  S
C1260      H1264   1.083       .  S
O1261      H1266   0.991       .  S
O1263      H1267   0.992       .  S
C1269      C1270   1.406       .  A
C1269      C1274   1.399       .  A
C1269      H1279   1.080       .  S
C1270      C1271   1.423       .  A
C1270      C1275   1.517       .  S
C1271      C1272   1.410       .  A
C1271      O1276   1.370       .  S
C1272      C1273   1.404       .  A
C1272      H1277   1.081       .  S
C1273      C1274   1.417       .  A
C1274      O1278   1.372       .  S
C1275      C1280   1.422       .  A
C1275      C1284   1.409       .  A
O1276      H1292   0.991       .  S
O1278      H1289   0.991       .  S
C1280      C1281   1.409       .  A
C1280      O1285   1.373       .  S
C1281      C1282   1.403       .  A
C1281      H1286   1.080       .  S
C1282      C1283   1.413       .  A
C1283      C1284   1.402       .  A
C1283      O1287   1.371       .  S
C1284      H1288   1.080       .  S
O1285      H1290   0.992       .  S
O1287      H1291   0.992       .  S
C1293      C1294   1.403       .  A
C1293      C1298   1.401       .  A
C1293      H1303   1.084       .  S
C1294      C1295   1.411       .  A
C1294      C1299   1.493       .  S
C1295      C1296   1.410       .  A
C1295      O1300   1.371       .  S
C1296      C1297   1.406       .  A
C1296      H1301   1.083       .  S
C1297      C1298   1.413       .  A
C1298      O1302   1.372       .  S
C1299      C1304   1.410       .  A
C1299      C1308   1.406       .  A
O1300      H1316   0.991       .  S
O1302      H1313   0.991       .  S
C1304      C1305   1.408       .  A
C1304      O1309   1.371       .  S
C1305      C1306   1.406       .  A
C1305      H1310   1.083       .  S
C1306      C1307   1.404       .  A
C1307      C1308   1.404       .  A
C1307      O1311   1.370       .  S
C1308      H1312   1.084       .  S
O1309      H1314   0.992       .  S
O1311      H1315   0.991       .  S
C1317      C1318   1.407       .  A
C1317      C1322   1.404       .  A
C1317      H1327   1.082       .  S
C1318      C1319   1.417       .  A
C1318      C1323   1.511       .  S
C1319      C1320   1.414       .  A
C1319      O1324   1.371       .  S
C1320      C1321   1.405       .  A
C1320      H1325   1.083       .  S
C1321      C1322   1.411       .  A
C1322      O1326   1.372       .  S
C1323      C1328   1.414       .  A
C1323      C1332   1.408       .  A
O1324      H1340   0.992       .  S
O1326      H1337   0.991       .  S
C1328      C1329   1.411       .  A
C1328      O1333   1.372       .  S
C1329      C1330   1.409       .  A
C1329      H1334   1.083       .  S
C1330      C1331   1.416       .  A
C1331      C1332   1.410       .  A
C1331      O1335   1.371       .  S
C1332      H1336   1.083       .  S
O1333      H1338   0.992       .  S
O1335      H1339   0.992       .  S
C1341      C1342   1.404       .  A
C1341      C1346   1.404       .  A
C1341      H1351   1.083       .  S
C1342      C1343   1.411       .  A
C1342      C1347   1.493       .  S
C1343      C1344   1.407       .  A
C1343      O1348   1.372       .  S
C1344      C1345   1.404       .  A
C1344      H1349   1.083       .  S
C1345      C1346   1.410       .  A
C1346      O1350   1.372       .  S
C1347      C1352   1.412       .  A
C1347      C1356   1.405       .  A
O1348      H1364   0.992       .  S
O1350      H1361   0.991       .  S
C1352      C1353   1.406       .  A
C1352      O1357   1.371       .  S
C1353      C1354   1.401       .  A
C1353      H1358   1.083       .  S
C1354      C1355   1.408       .  A
C1355      C1356   1.406       .  A
C1355      O1359   1.371       .  S
C1356      H1360   1.083       .  S
O1357      H1362   0.991       .  S
O1359      H1363   0.991       .  S
C1365      C1366   1.407       .  A
C1365      C1370   1.410       .  A
C1365      H1375   1.083       .  S
C1366      C1367   1.408       .  A
C1366      C1371   1.490       .  S
C1367      C1368   1.399       .  A
C1367      O1372   1.370       .  S
C1368      C1369   1.403       .  A
C1368      H1373   1.084       .  S
C1369      C1370   1.409       .  A
C1370      O1374   1.371       .  S
C1371      C1376   1.409       .  A
C1371      C1380   1.402       .  A
O1372      H1388   0.991       .  S
O1374      H1385   0.992       .  S
C1376      C1377   1.408       .  A
C1376      O1381   1.371       .  S
C1377      C1378   1.407       .  A
C1377      H1382   1.083       .  S
C1378      C1379   1.413       .  A
C1379      C1380   1.403       .  A
C1379      O1383   1.371       .  S
C1380      H1384   1.084       .  S
O1381      H1386   0.992       .  S
O1383      H1387   0.992       .  S
C1389      C1390   1.400       .  A
C1389      C1394   1.401       .  A
C1389      H1399   1.084       .  S
C1390      C1391   1.409       .  A
C1390      C1395   1.491       .  S
C1391      C1392   1.412       .  A
C1391      O1396   1.371       .  S
C1392      C1393   1.412       .  A
C1392      H1397   1.083       .  S
C1393      C1394   1.418       .  A
C1394      O1398   1.371       .  S
C1395      C1400   1.410       .  A
C1395      C1404   1.404       .  A
O1396      H1412   0.992       .  S
O1398      H1409   0.992       .  S
C1400      C1401   1.405       .  A
C1400      O1405   1.371       .  S
C1401      C1402   1.403       .  A
C1401      H1406   1.083       .  S
C1402      C1403   1.411       .  A
C1403      C1404   1.405       .  A
C1403      O1407   1.372       .  S
C1404      H1408   1.083       .  S
O1405      H1410   0.991       .  S
O1407      H1411   0.991       .  S
