geometry optimzed in LAMMPS
_audit_creation_date              2020-12-01 
_audit_creation_method            'lammps2cif' 
_symmetry_space_group_name_H-M    'P1' 
_symmetry_Int_Tables_number       1 
_symmetry_cell_setting            triclinic 
loop_ 
_symmetry_equiv_pos_as_xyz 
  x,y,z 
_cell_length_a                    26.22445143 
_cell_length_b                    26.22447331593726 
_cell_length_c                    41.227453537714176 
_cell_angle_alpha                 89.80804188401888 
_cell_angle_beta                  90.01884411044577 
_cell_angle_gamma                 89.96355270469788 
loop_ 
_atom_site_label 
_atom_site_type_symbol 
_atom_site_fract_x 
_atom_site_fract_y 
_atom_site_fract_z 
_atom_site_charge 
O1          O  0.69550502  0.79787047  0.15817501    -0.85900
O2          O  0.79938594  0.78616534  0.14888636    -0.82900
C3          C  0.80144149  0.81333092  0.12370175     0.97600
O4          O  0.79984045  0.86113633  0.12656570    -0.83000
O5          O  0.77207693  0.95469698  0.15001855    -0.85600
C6          C  0.72529806  0.96313783  0.14527314     1.02100
O7          O  0.69191169  0.93658231  0.15975808    -0.78400
O8          O  0.65275289  0.84995091  0.18962072    -0.78600
C9          C  0.65399731  0.81855956  0.16642876     1.02100
O10         O  0.71090491  0.79328754  0.22635538    -0.85900
O11         O  0.81491710  0.79677361  0.21680547    -0.82900
C12         C  0.85751841  0.81523087  0.20865738     0.97600
O13         O  0.86103661  0.84499963  0.18449263    -0.83000
O14         O  0.82578277  0.93772909  0.20828799    -0.85600
C15         C  0.79300174  0.96741692  0.22053353     1.02100
O16         O  0.74599004  0.95993434  0.21675269    -0.78400
O17         O  0.71541476  0.86992046  0.24599450    -0.78500
C18         C  0.71066679  0.82247669  0.25054524     1.02000
Cr19       Cr  0.75535355  0.79859263  0.18743671     1.93700
Cr20       Cr  0.81079820  0.89685623  0.16860945     1.93200
Cr21       Cr  0.70540076  0.90114551  0.20196343     1.39100
O22         O  0.75735150  0.86610797  0.18608765    -1.23600
O23         O  0.67317732  0.72551371  0.44261331    -0.85900
O24         O  0.74951043  0.71759779  0.48630368    -0.82900
C25         C  0.78785736  0.70453966  0.00176753     0.97600
O26         O  0.81686889  0.66945990  0.49031819    -0.83000
O27         O  0.75280210  0.58456512  0.48518926    -0.85600
C28         C  0.72150441  0.55288791  0.47366028     1.02100
O29         O  0.70504357  0.55826144  0.44481507    -0.78400
O30         O  0.65037896  0.64517604  0.44378749    -0.78600
C31         C  0.64090986  0.69106475  0.44976512     1.02100
O32         O  0.75065560  0.73000796  0.39219734    -0.85900
O33         O  0.82760742  0.72661290  0.43556622    -0.82900
C34         C  0.85920171  0.69442966  0.42407139     0.97600
O35         O  0.85108249  0.64729636  0.42591259    -0.83000
O36         O  0.79745879  0.55739952  0.42479354    -0.85600
C37         C  0.78036458  0.55428601  0.39609669     1.02100
O38         O  0.75297264  0.58961520  0.38492025    -0.78400
O39         O  0.69017064  0.67540720  0.38150987    -0.78500
C40         C  0.71671093  0.71394473  0.37348619     1.02000
Cr41       Cr  0.75033692  0.71988623  0.43905405     1.93700
Cr42       Cr  0.80099612  0.61756319  0.45525712     1.93200
Cr43       Cr  0.70323015  0.61984270  0.41505176     1.39100
O44         O  0.75140474  0.65269195  0.43629629    -1.23600
O45         O  0.21512606  0.76415688  0.26769051    -0.85900
O46         O  0.21217146  0.84518745  0.30931695    -0.82900
C47         C  0.17556674  0.87493891  0.30183715     0.97600
O48         O  0.13021940  0.86215577  0.30705704    -0.83000
O49         O  0.04810054  0.80009404  0.30749537    -0.85600
C50         C  0.04497855  0.78187411  0.27901726     1.02100
O51         O  0.07940147  0.75284805  0.26838799    -0.78400
O52         O  0.16887665  0.69510014  0.26490031    -0.78600
C53         C  0.20247112  0.72438546  0.25294844     1.02100
O54         O  0.22626830  0.69242354  0.32148060    -0.85900
O55         O  0.22073009  0.77220480  0.36221211    -0.82900
C56         C  0.20181434  0.80629160  0.37959115     0.97600
O57         O  0.16168848  0.82938274  0.37067315    -0.83000
O58         O  0.08285490  0.75896314  0.36873443    -0.85600
C59         C  0.05034148  0.72774272  0.35851549     1.02100
O60         O  0.05517043  0.70946717  0.33019525    -0.78400
O61         O  0.14855003  0.66327618  0.33023588    -0.78500
C62         C  0.19602434  0.65895433  0.33292347     1.02000
Cr63       Cr  0.21340555  0.76822798  0.31523585     1.93700
Cr64       Cr  0.10885386  0.80904106  0.33712695     1.93200
Cr65       Cr  0.11559440  0.70911237  0.29962077     1.39100
O66         O  0.14628890  0.76239801  0.31721557    -1.23600
O67         O  0.28839221  0.76241296  0.01860402    -0.85900
O68         O  0.28664837  0.68223180  0.06012767    -0.82900
C69         C  0.31990505  0.64986544  0.05096256     0.97600
O70         O  0.36645810  0.65843495  0.05542576    -0.86200
O71         O  0.45418598  0.71242248  0.05214191    -0.85600
C72         C  0.45727406  0.73029969  0.02342940     1.02100
O73         O  0.42459821  0.76222243  0.01362664    -0.78400
O74         O  0.33976718  0.82713757  0.01285963    -0.78600
C75         C  0.30299384  0.80341193  0.50254880     1.02100
O76         O  0.28826306  0.83615502  0.07197615    -0.85900
O77         O  0.29010585  0.75657981  0.11294083    -0.82900
C78         C  0.30586878  0.72026707  0.12981892     0.97600
O79         O  0.34334392  0.69374191  0.11999856    -0.83000
O80         O  0.42846014  0.75719038  0.11408406    -0.85600
C81         C  0.46172010  0.78646229  0.10238545     1.02100
O82         O  0.45664787  0.80394638  0.07390225    -0.78400
O83         O  0.36856182  0.85889468  0.07685188    -0.78500
C84         C  0.32205283  0.86740446  0.08193580     1.02000
Cr85       Cr  0.29346986  0.75924096  0.06580633     1.93700
Cr86       Cr  0.39529707  0.70926443  0.08420635     1.93200
Cr87       Cr  0.39443664  0.80921427  0.04566979     1.39100
O88         O  0.36077670  0.75901686  0.06514592    -1.23600
O89         O  0.18865386  0.22491983  0.21815107    -0.85900
O90         O  0.29367476  0.23467633  0.22627913    -0.82900
C91         C  0.29578499  0.20815357  0.25163202     0.97600
O92         O  0.29179836  0.16024228  0.24918853    -0.83000
O93         O  0.25971263  0.06736989  0.22585729    -0.85600
C94         C  0.21261961  0.06121735  0.23056995     1.02100
O95         O  0.18031874  0.08825724  0.21546780    -0.78400
O96         O  0.14501351  0.17601582  0.18563318    -0.78600
C97         C  0.14680963  0.20425394  0.21032483     1.02100
O98         O  0.20348544  0.23143965  0.14940508    -0.85900
O99         O  0.30823358  0.22370743  0.15861522    -0.82900
C100        C  0.34981896  0.20229289  0.16641711     0.97600
O101        O  0.35219122  0.17242910  0.19054183    -0.83000
O102        O  0.31354665  0.08132079  0.16694996    -0.85600
C103        C  0.27993222  0.05295373  0.15423716     1.02100
O104        O  0.23325450  0.06226175  0.15830112    -0.78400
O105        O  0.20602110  0.15467668  0.12948332    -0.78500
C106        C  0.20171009  0.20233109  0.12519480     1.02000
Cr107      Cr  0.24838249  0.22365712  0.18821334     1.93700
Cr108      Cr  0.30048320  0.12320840  0.20686444     1.93200
Cr109      Cr  0.19523996  0.12299299  0.17328191     1.39100
O110        O  0.24835938  0.15602173  0.18926542    -1.23600
O111        O  0.16022338  0.30105464  0.43188369    -0.85900
O112        O  0.23988693  0.30163996  0.38994112    -0.82900
C113        C  0.28015682  0.31248663  0.37527217     0.97600
O114        O  0.30983000  0.34608615  0.38699398    -0.83000
O115        O  0.25187653  0.43525668  0.39005774    -0.85600
C116        C  0.22333043  0.47014237  0.40038156     1.02100
O117        O  0.20311733  0.46648255  0.42838670    -0.78400
O118        O  0.14321209  0.38246780  0.42668086    -0.78600
C119        C  0.13090246  0.33687474  0.42231506     1.02100
O120        O  0.23535054  0.29533513  0.48409517    -0.85900
O121        O  0.31437212  0.29016459  0.44266055    -0.82900
C122        C  0.34669520  0.32086854  0.45493644     0.97600
O123        O  0.34058672  0.36815122  0.45272980    -0.83000
O124        O  0.29348470  0.46026965  0.45269406    -0.85600
C125        C  0.27368125  0.46455476  0.48072766     1.02100
O126        O  0.24083128  0.43304653  0.49029857    -0.78400
O127        O  0.17427243  0.35076026  0.49159688    -0.78500
C128        C  0.20307795  0.31094211  0.00186764     1.02000
Cr129      Cr  0.23765103  0.30189895  0.43722315     1.93700
Cr130      Cr  0.29517573  0.40002943  0.42167306     1.93200
Cr131      Cr  0.19370792  0.40514663  0.45797739     1.39100
O132        O  0.24214262  0.36889320  0.43908667    -1.23600
O133        O  0.77554619  0.30285082  0.26784678    -0.85900
O134        O  0.78796359  0.19824380  0.27802634    -0.82900
C135        C  0.80954306  0.15753265  0.28751305     0.97600
O136        O  0.83735591  0.15721110  0.31246550    -0.83000
O137        O  0.92690816  0.19882370  0.28862760    -0.85600
C138        C  0.95537501  0.23324283  0.27700496     1.02100
O139        O  0.94459641  0.27966917  0.28024659    -0.78400
O140        O  0.85325084  0.30363483  0.24926683    -0.78600
C141        C  0.80566323  0.30559782  0.24413790     1.02100
O142        O  0.77731786  0.31967831  0.33636089    -0.85900
O143        O  0.77259512  0.21434518  0.34579570    -0.82900
C144        C  0.79883681  0.21264071  0.37128940     0.97600
O145        O  0.84642890  0.21939087  0.36944678    -0.83000
O146        O  0.93876790  0.25353211  0.34672534    -0.85600
C147        C  0.94406450  0.30069104  0.35119295     1.02100
O148        O  0.91593492  0.33246990  0.33626415    -0.78400
O149        O  0.82727594  0.36473077  0.30476390    -0.78500
C150        C  0.79696323  0.36214403  0.32848761     1.02000
Cr151      Cr  0.78324526  0.25902655  0.30717560     1.93700
Cr152      Cr  0.88442259  0.21112542  0.32794027     1.93200
Cr153      Cr  0.88251112  0.31606981  0.29368301     1.39100
O154        O  0.85059828  0.26205432  0.30962104    -1.23600
O155        O  0.70690256  0.25724335  0.01079861    -0.85900
O156        O  0.71061777  0.33354919  0.05420525    -0.82900
C157        C  0.67712905  0.36497952  0.04404832     0.97600
O158        O  0.63062960  0.35603814  0.04821980    -0.83000
O159        O  0.54220451  0.30257336  0.04836809    -0.85600
C160        C  0.53743573  0.28491267  0.01979798     1.02100
O161        O  0.57112154  0.25564895  0.00865789    -0.78400
O162        O  0.65602436  0.19231454  0.00420181    -0.78600
C163        C  0.69362657  0.22092431  0.49386153     1.02100
O164        O  0.71013800  0.17906233  0.06143355    -0.85900
O165        O  0.70891901  0.25552160  0.10521337    -0.82900
C166        C  0.69535320  0.29272600  0.12209515     0.97600
O167        O  0.65875647  0.32067602  0.11223179    -0.83000
O168        O  0.57208911  0.25789537  0.10884619    -0.85600
C169        C  0.53889543  0.22791884  0.09776690     1.02100
O170        O  0.54277467  0.20999806  0.06932615    -0.78400
O171        O  0.63067176  0.15583890  0.06824731    -0.78500
C172        C  0.67739299  0.14683605  0.07155404     1.02000
Cr173      Cr  0.70423896  0.25630229  0.05798432     1.93700
Cr174      Cr  0.60368451  0.30576728  0.07822418     1.93200
Cr175      Cr  0.60291846  0.20704242  0.03888031     1.39100
O176        O  0.63708016  0.25625369  0.05847719    -1.23600
C177        C  0.79972756  0.21938766  0.43122256    -0.20800
C178        C  0.77314762  0.20508612  0.40320969    -0.07400
C179        C  0.72189206  0.18773128  0.40643670     0.13500
C180        C  0.69746879  0.19054902  0.43675807    -0.20900
C181        C  0.72275224  0.21001176  0.46387702    -0.07400
C182        C  0.77550601  0.22182904  0.46144815     0.13500
C183        C  0.80711952  0.23679088  0.49055043    -0.24200
H184        H  0.83921483  0.23101065  0.42933004     0.14700
H185        H  0.65778553  0.17970887  0.43894571     0.14800
C186        C  0.69235232  0.16569696  0.37845984    -0.24200
H187        H  0.84837329  0.23886145  0.48458934     0.05000
H188        H  0.80241828  0.20803811  0.51016622     0.08200
H189        H  0.79577359  0.27503272  0.49940931     0.08200
H190        H  0.71422076  0.13366565  0.36790030     0.08200
H191        H  0.68478544  0.19532002  0.35981739     0.08200
H192        H  0.65477929  0.15046903  0.38626937     0.05000
C193        C  0.73599551  0.33556776  0.20743868    -0.20800
C194        C  0.78301639  0.30994745  0.21098987    -0.07400
C195        C  0.80270229  0.28303999  0.18417908     0.13500
C196        C  0.77378649  0.28005380  0.15550259    -0.20900
C197        C  0.72523717  0.30310108  0.15246112    -0.07400
C198        C  0.70712374  0.33289759  0.17859281     0.13500
C199        C  0.65682264  0.36051445  0.17688554    -0.24200
H200        H  0.72089749  0.35666345  0.22786327     0.14700
H201        H  0.78902214  0.25822009  0.13544948     0.14800
C202        C  0.85275173  0.25489159  0.18612956    -0.24200
H203        H  0.64827849  0.38107615  0.19976046     0.05000
H204        H  0.62553274  0.33285934  0.17255926     0.08200
H205        H  0.65776760  0.38913494  0.15699237     0.08200
H206        H  0.85125756  0.22623352  0.20596482     0.08200
H207        H  0.88418078  0.28223125  0.19080562     0.08200
H208        H  0.86161417  0.23447446  0.16325037     0.05000
C209        C  0.40063720  0.32627039  0.50300166    -0.20800
C210        C  0.39251516  0.30392461  0.47265806    -0.07400
C211        C  0.43208975  0.27597807  0.45802788     0.13500
C212        C  0.47926866  0.27142059  0.47418045    -0.20900
C213        C  0.48897445  0.29269945  0.00164087    -0.07400
C214        C  0.44755075  0.32276929  0.51903356     0.13500
C215        C  0.53000241  0.27471366  0.94638882    -0.24200
H216        H  0.37007564  0.34834602  0.51377920     0.14700
H217        H  0.50949447  0.24969423  0.46282483     0.14800
C218        C  0.42522802  0.25289567  0.42492610    -0.24200
H219        H  0.41720234  0.37103887  0.55765065     0.05000
H220        H  0.54609646  0.23666783  0.95229900     0.08200
H221        H  0.45973161  0.32217532  0.57090637     0.08200
H222        H  0.41618005  0.28327101  0.40698717     0.08200
H223        H  0.39352018  0.22488122  0.42553142     0.08200
H224        H  0.46021518  0.23286315  0.41670560     0.05000
C225        C  0.00304115  0.28039123  0.39645446    -0.20800
C226        C  0.98688317  0.31595790  0.37278500    -0.07400
C227        C  0.01742733  0.35926895  0.36679341     0.13500
C228        C  0.06390023  0.36452019  0.38344868    -0.20900
C229        C  0.08132105  0.32747742  0.40579360    -0.07400
C230        C  0.04982302  0.28528177  0.41277142     0.13500
C231        C  0.06478519  0.24557400  0.43751303    -0.24200
H232        H  0.97957462  0.24724886  0.40143367     0.14700
H233        H  0.08759179  0.39739701  0.37825381     0.14800
C234        C  0.00270774  0.39891256  0.34194841    -0.24200
H235        H  0.03449248  0.21644262  0.44085342     0.05000
H236        H  0.07167688  0.26397520  0.46133427     0.08200
H237        H  0.09981118  0.22547993  0.42949707     0.08200
H238        H  0.96572864  0.41652003  0.34875172     0.08200
H239        H  0.99945694  0.38105709  0.31765211     0.08200
H240        H  0.03146817  0.42988309  0.34022805     0.05000
C241        C  0.42859624  0.16775756  0.14247888    -0.20800
C242        C  0.39703184  0.21035332  0.14765589    -0.07400
C243        C  0.41279213  0.25874783  0.13647838     0.13500
C244        C  0.46031291  0.26328830  0.12112138    -0.20900
C245        C  0.49135185  0.22046993  0.11579801    -0.07400
C246        C  0.47496351  0.17195554  0.12590515     0.13500
C247        C  0.50668371  0.12503354  0.11970082    -0.24200
H248        H  0.41671178  0.13071231  0.15151206     0.14700
H249        H  0.47301037  0.30041524  0.11260628     0.14800
C250        C  0.38061893  0.30566673  0.14149432    -0.24200
H251        H  0.48856628  0.09020517  0.12987909     0.05000
H252        H  0.54482242  0.12941384  0.13104918     0.08200
H253        H  0.51138553  0.11940215  0.09319746     0.08200
H254        H  0.37296997  0.31094048  0.16776187     0.08200
H255        H  0.34399304  0.30174991  0.12824159     0.08200
H256        H  0.39989723  0.34053753  0.13229279     0.05000
C257        C  0.04654563  0.25180183  0.27018889    -0.20800
C258        C  0.00446648  0.22153499  0.26147226    -0.07400
C259        C  0.00964087  0.18507540  0.23684591     0.13500
C260        C  0.05669978  0.18045614  0.22104124    -0.20900
C261        C  0.09889728  0.21161883  0.22905581    -0.07400
C262        C  0.09371757  0.24735550  0.25448534     0.13500
C263        C  0.13682951  0.28153559  0.26509612    -0.24200
H264        H  0.04220041  0.27969516  0.28937330     0.14700
H265        H  0.06013691  0.15231017  0.20199070     0.14800
C266        C  0.96523534  0.15271582  0.22620000    -0.24200
H267        H  0.12508687  0.30760042  0.28493142     0.05000
H268        H  0.14969745  0.30549388  0.24441194     0.08200
H269        H  0.16906127  0.25816359  0.27434169     0.08200
H270        H  0.93344732  0.17758816  0.21801992     0.08200
H271        H  0.95208099  0.12842702  0.24663708     0.08200
H272        H  0.97563319  0.12721329  0.20578829     0.05000
C273        C  0.17054943  0.27361177  0.08982462    -0.20800
C274        C  0.19535100  0.22588921  0.09240993    -0.07400
C275        C  0.21849451  0.20527190  0.06449399     0.13500
C276        C  0.21738601  0.23313087  0.03538623    -0.20900
C277        C  0.19504695  0.28214251  0.03299967    -0.07400
C278        C  0.17009685  0.30193867  0.06060758     0.13500
C279        C  0.14454414  0.35334819  0.05993895    -0.24200
H280        H  0.15257615  0.28961900  0.11113765     0.14700
H281        H  0.23594849  0.21671666  0.01439482     0.14800
C282        C  0.24720029  0.15538577  0.06544050    -0.24200
H283        H  0.12758635  0.36311642  0.08380928     0.05000
H284        H  0.11337996  0.35336290  0.04170693     0.08200
H285        H  0.17283452  0.38330971  0.05372185     0.08200
H286        H  0.22082311  0.12380687  0.07175296     0.08200
H287        H  0.27838658  0.15742510  0.08363156     0.08200
H288        H  0.26472840  0.14616497  0.04164887     0.05000
C289        C  0.28629413  0.20695102  0.31185262    -0.20800
C290        C  0.30047627  0.23409334  0.28390241    -0.07400
C291        C  0.31459049  0.28639942  0.28734455     0.13500
C292        C  0.31055440  0.31026568  0.31784915    -0.20900
C293        C  0.29204903  0.28399642  0.34497437    -0.07400
C294        C  0.28165453  0.23100764  0.34213922     0.13500
C295        C  0.26588621  0.19913336  0.37100091    -0.24200
H296        H  0.27641988  0.16691225  0.30979749     0.14700
H297        H  0.31941821  0.35052235  0.32015417     0.14800
C298        C  0.33351653  0.31803626  0.25919317    -0.24200
H299        H  0.26384243  0.15795190  0.36490203     0.05000
H300        H  0.22751207  0.21064785  0.37958033     0.08200
H301        H  0.29410573  0.20362725  0.39087392     0.08200
H302        H  0.30245179  0.32409029  0.24131727     0.08200
H303        H  0.36638945  0.29877225  0.24748171     0.08200
H304        H  0.34649281  0.35636648  0.26707463     0.05000
C305        C  0.26050744  0.96352857  0.13934260    -0.20800
C306        C  0.29290738  0.00603017  0.13568543    -0.07400
C307        C  0.33383776  0.00290707  0.11358634     0.13500
C308        C  0.34093101  0.95787283  0.09565050    -0.20900
C309        C  0.30856982  0.91527899  0.09936561    -0.07400
C310        C  0.26802933  0.91820172  0.12188296     0.13500
C311        C  0.23401479  0.87320437  0.12895483    -0.24200
H312        H  0.22934318  0.96547541  0.15658230     0.14700
H313        H  0.37247050  0.95577298  0.07872726     0.14800
C314        C  0.36980920  0.04684773  0.10853936    -0.24200
H315        H  0.20530055  0.88203140  0.14792933     0.05000
H316        H  0.25737536  0.84082587  0.13790651     0.08200
H317        H  0.21299860  0.86191704  0.10675611     0.08200
H318        H  0.39111160  0.05367565  0.13131990     0.08200
H319        H  0.34819981  0.08161905  0.10155015     0.08200
H320        H  0.39813644  0.03888398  0.08918687     0.05000
C321        C  0.24956670  0.53240730  0.01790931    -0.20800
C322        C  0.28403775  0.51004746  0.50062633    -0.07400
C323        C  0.33253955  0.51976057  0.51352131     0.13500
C324        C  0.34082909  0.56508200  0.53067543    -0.20900
C325        C  0.30657827  0.60105928  0.03430100    -0.07400
C326        C  0.25758968  0.57843777  0.03475218     0.13500
C327        C  0.21374846  0.60189997  0.05299040    -0.24200
H328        H  0.21186931  0.51569681  0.01767959     0.14700
H329        H  0.37849726  0.57179717  0.54036148     0.14800
C330        C  0.37545492  0.48203596  0.50951298    -0.24200
H331        H  0.17885260  0.57803914  0.05155150     0.05000
H332        H  0.20438670  0.63983073  0.04254519     0.08200
H333        H  0.22398187  0.60594417  0.07899171     0.08200
H334        H  0.38388285  0.47660853  0.48336714     0.08200
H335        H  0.36438347  0.44487550  0.52038865     0.08200
H336        H  0.41095609  0.49510777  0.52158491     0.05000
C337        C  0.23461304  0.00095768  0.27486757    -0.20800
C338        C  0.19756466  0.01904392  0.25281128    -0.07400
C339        C  0.15125331  0.99196466  0.24975014     0.13500
C340        C  0.14534229  0.94566947  0.26655132    -0.20900
C341        C  0.18428440  0.92549449  0.28643920    -0.07400
C342        C  0.22870158  0.95468427  0.29161606     0.13500
C343        C  0.26973977  0.93797412  0.31496374    -0.24200
H344        H  0.26950697  0.02236743  0.27823638     0.14700
H345        H  0.11048454  0.92418253  0.26319425     0.14800
C346        C  0.10864143  0.01015142  0.22803430    -0.24200
H347        H  0.30020401  0.96711923  0.31737473     0.05000
H348        H  0.28798737  0.90236965  0.30628310     0.08200
H349        H  0.25293040  0.93163692  0.33936796     0.08200
H350        H  0.12198748  0.01204235  0.20250868     0.08200
H351        H  0.09549061  0.04838889  0.23598384     0.08200
H352        H  0.07527484  0.98410910  0.22883874     0.05000
C353        C  0.30508483  0.82106501  0.44342953    -0.20800
C354        C  0.27638900  0.81588312  0.47184344    -0.07400
C355        C  0.22236807  0.81655249  0.46986219     0.13500
C356        C  0.19856776  0.81790757  0.43930130    -0.20900
C357        C  0.22745943  0.81762529  0.41075872    -0.07400
C358        C  0.28137161  0.82146108  0.41285713     0.13500
C359        C  0.31426235  0.82549342  0.38294098    -0.24200
H360        H  0.34636007  0.82142563  0.44503789     0.14700
H361        H  0.15736028  0.81577937  0.43768387     0.14800
C362        C  0.18925918  0.80670723  0.99915902    -0.24200
H363        H  0.35494132  0.83194897  0.38921054     0.05000
H364        H  0.30129732  0.85805695  0.36778346     0.08200
H365        H  0.31235948  0.78981469  0.36864457     0.08200
H366        H  0.19852647  0.83777180  0.01641659     0.08200
H367        H  0.19488531  0.76923411  0.01117617     0.08200
H368        H  0.14818092  0.80986750  0.99286211     0.05000
C369        C  0.30636297  0.70360604  0.18973894    -0.20800
C370        C  0.27861022  0.71013852  0.16092820    -0.07400
C371        C  0.22446903  0.71337350  0.16272566     0.13500
C372        C  0.20018587  0.71413710  0.19313828    -0.20900
C373        C  0.22836937  0.71239485  0.22188077    -0.07400
C374        C  0.28186346  0.70501461  0.22020902     0.13500
C375        C  0.31312288  0.69893758  0.25064479    -0.24200
H376        H  0.34753680  0.70038936  0.18852805     0.14700
H377        H  0.15917676  0.71904303  0.19450020     0.14800
C378        C  0.19174062  0.71643048  0.13264950    -0.24200
H379        H  0.35397608  0.69198116  0.24508385     0.05000
H380        H  0.29866000  0.66598405  0.26491084     0.08200
H381        H  0.31063217  0.73395484  0.26558703     0.08200
H382        H  0.20101161  0.68428502  0.11621960     0.08200
H383        H  0.19782803  0.75316681  0.11984762     0.08200
H384        H  0.15048965  0.71409106  0.13858444     0.05000
C385        C  0.21786427  0.56795227  0.33184609    -0.20800
C386        C  0.21449624  0.61322752  0.34962216    -0.07400
C387        C  0.21505220  0.61146808  0.38378911     0.13500
C388        C  0.21759765  0.56412022  0.39950705    -0.20900
C389        C  0.21938539  0.51838894  0.38186145    -0.07400
C390        C  0.22070976  0.52038636  0.34749609     0.13500
C391        C  0.22248228  0.47275741  0.32711519    -0.24200
H392        H  0.21574981  0.56975944  0.30558743     0.14700
H393        H  0.21807469  0.56286274  0.42580521     0.14800
C394        C  0.21141227  0.65953883  0.40364815    -0.24200
H395        H  0.21946112  0.48161380  0.30081670     0.05000
H396        H  0.19026411  0.44727591  0.33367841     0.08200
H397        H  0.25916692  0.45249410  0.33089539     0.08200
H398        H  0.17516455  0.67975719  0.39821900     0.08200
H399        H  0.24401371  0.68492088  0.39777683     0.08200
H400        H  0.21242198  0.65133943  0.43009884     0.05000
C401        C  0.51981520  0.75564688  0.98034741    -0.20800
C402        C  0.50266207  0.71865966  0.00282659    -0.07400
C403        C  0.52272676  0.66895550  0.50062130     0.13500
C404        C  0.56862144  0.66235531  0.48380400    -0.20900
C405        C  0.59148963  0.70233813  0.46604014    -0.07400
C406        C  0.56604740  0.74978850  0.46409351     0.13500
C407        C  0.58109154  0.78932666  0.93834826    -0.24200
H408        H  0.49794993  0.79035194  0.97706799     0.14700
H409        H  0.58725374  0.62569255  0.48518759     0.14800
C410        C  0.49994882  0.62390829  0.51831518    -0.24200
H411        H  0.55252737  0.82051229  0.93664999     0.05000
H412        H  0.58489179  0.77183369  0.91396882     0.08200
H413        H  0.62368902  0.80617541  0.45403276     0.08200
H414        H  0.46018965  0.61762616  0.50993796     0.08200
H415        H  0.50028641  0.63050394  0.54486580     0.08200
H416        H  0.52176370  0.58831139  0.51379001     0.05000
C417        C  0.95051511  0.71855829  0.42606723    -0.20800
C418        C  0.90631501  0.71044784  0.40767901    -0.07400
C419        C  0.90985885  0.70701553  0.37364498     0.13500
C420        C  0.95763465  0.71096290  0.35875863    -0.20900
C421        C  0.00228097  0.71926798  0.37686745    -0.07400
C422        C  0.99855393  0.72357658  0.41110533     0.13500
C423        C  0.04496245  0.73139103  0.43210609    -0.24200
H424        H  0.94756412  0.71945295  0.45234324     0.14700
H425        H  0.95988655  0.70829493  0.33251986     0.14800
C426        C  0.86305786  0.69905309  0.35297674    -0.24200
H427        H  0.03527257  0.73001573  0.45832428     0.05000
H428        H  0.06209617  0.76928924  0.42717023     0.08200
H429        H  0.07342843  0.70099085  0.42725469     0.08200
H430        H  0.83628089  0.73133090  0.35651151     0.08200
H431        H  0.84386410  0.66286724  0.35979001     0.08200
H432        H  0.87260513  0.69716842  0.32675609     0.05000
C433        C  0.78082584  0.45979625  0.39578937    -0.20800
C434        C  0.78512845  0.50567018  0.37814682    -0.07400
C435        C  0.78985123  0.50368535  0.34407868     0.13500
C436        C  0.79023001  0.45614872  0.32865127    -0.20900
C437        C  0.78654867  0.41015824  0.34622120    -0.07400
C438        C  0.78158078  0.41208692  0.38033371     0.13500
C439        C  0.77913412  0.36428055  0.40070508    -0.24200
H440        H  0.77640915  0.46127502  0.42194181     0.14700
H441        H  0.79470823  0.45486035  0.30249837     0.14800
C442        C  0.79667184  0.55121421  0.32392133    -0.24200
H443        H  0.77664509  0.37303451  0.42700465     0.05000
H444        H  0.81392899  0.34093706  0.39678181     0.08200
H445        H  0.74488930  0.34173874  0.39409051     0.08200
H446        H  0.82990503  0.57323763  0.33291402     0.08200
H447        H  0.76189900  0.57492966  0.32522023     0.08200
H448        H  0.80341195  0.54224333  0.29795986     0.05000
C449        C  0.65594260  0.43296000  0.50479583    -0.20800
C450        C  0.69016531  0.41285028  0.02660803    -0.07400
C451        C  0.73442658  0.44184526  0.03274870     0.13500
C452        C  0.74144027  0.48823837  0.01610570    -0.20900
C453        C  0.70910143  0.50618291  0.49247125    -0.07400
C454        C  0.66345112  0.47858225  0.48772707     0.13500
C455        C  0.62176317  0.49705233  0.46532794    -0.24200
H456        H  0.62093261  0.41204306  0.50090059     0.14700
H457        H  0.77582959  0.51011417  0.02057546     0.14800
C458        C  0.77369357  0.42488057  0.05718049    -0.24200
H459        H  0.58730902  0.47252661  0.46670875     0.05000
H460        H  0.63510571  0.49637099  0.43979898     0.08200
H461        H  0.61023703  0.53632136  0.47207530     0.08200
H462        H  0.79111767  0.38835895  0.04936699     0.08200
H463        H  0.75551600  0.41983020  0.08130110     0.08200
H464        H  0.80486182  0.45324428  0.05976079     0.05000
C465        C  0.56066290  0.80662688  0.16824537    -0.20800
C466        C  0.60578118  0.80647543  0.14980117    -0.07400
C467        C  0.60305560  0.79988928  0.11586366     0.13500
C468        C  0.55518522  0.79438095  0.10126098    -0.20900
C469        C  0.51009922  0.79466476  0.11969671    -0.07400
C470        C  0.51282502  0.80029557  0.15367349     0.13500
C471        C  0.46563277  0.80131087  0.17456290    -0.24200
H472        H  0.56286904  0.81194564  0.19424542     0.14700
H473        H  0.55299269  0.78919110  0.07524153     0.14800
C474        C  0.64999005  0.80054862  0.09471260    -0.24200
H475        H  0.47489397  0.80927580  0.20034179     0.05000
H476        H  0.44610872  0.76381067  0.17374433     0.08200
H477        H  0.43930286  0.83159065  0.16585660     0.08200
H478        H  0.67530026  0.76809019  0.10109891     0.08200
H479        H  0.67077690  0.83700774  0.09806519     0.08200
H480        H  0.64031336  0.79706608  0.06858290     0.05000
C481        C  0.95060664  0.79978010  0.20974545    -0.20800
C482        C  0.90436065  0.80245536  0.22689084    -0.07400
C483        C  0.90478147  0.79777840  0.26106367     0.13500
C484        C  0.95151970  0.79230368  0.27714854    -0.20900
C485        C  0.99778874  0.78977980  0.26005194    -0.07400
C486        C  0.99726700  0.79276247  0.22580519     0.13500
C487        C  0.04559216  0.79025447  0.20604370    -0.24200
H488        H  0.95022294  0.80335253  0.18356167     0.14700
H489        H  0.95183335  0.78953031  0.30335772     0.14800
C490        C  0.85659331  0.80052455  0.28092303    -0.24200
H491        H  0.03812611  0.79653565  0.17981128     0.05000
H492        H  0.06344669  0.75208652  0.20861850     0.08200
H493        H  0.07265360  0.82008720  0.21427525     0.08200
H494        H  0.83118001  0.76808783  0.27486211     0.08200
H495        H  0.83677187  0.83703253  0.27585903     0.08200
H496        H  0.86448351  0.79866097  0.30737319     0.05000
C497        C  0.81503180  0.73490725  0.09057285    -0.20800
C498        C  0.80449998  0.78775171  0.09141139    -0.07400
C499        C  0.79282805  0.81303868  0.06188966     0.13500
C500        C  0.79006456  0.78467405  0.03313408    -0.20900
C501        C  0.79834818  0.73167151  0.03263866    -0.07400
C502        C  0.81201846  0.70662476  0.06167359     0.13500
C503        C  0.82088821  0.64987773  0.06269836    -0.24200
H504        H  0.82433419  0.71505689  0.11289244     0.14700
H505        H  0.78015200  0.80405596  0.01072313     0.14800
C506        C  0.78148515  0.86941373  0.06021742    -0.24200
H507        H  0.82934549  0.63625093  0.08766583     0.05000
H508        H  0.85386711  0.63985897  0.04710544     0.08200
H509        H  0.78635554  0.62959374  0.05399370     0.08200
H510        H  0.81513747  0.89142397  0.06855920     0.08200
H511        H  0.74789825  0.87861642  0.07548719     0.08200
H512        H  0.77265880  0.88212827  0.03510807     0.05000
C513        C  0.72229142  0.79447690  0.34141334    -0.20800
C514        C  0.70832430  0.74252389  0.34256735    -0.07400
C515        C  0.68987441  0.71941973  0.31402302     0.13500
C516        C  0.68891605  0.74762640  0.28502183    -0.20900
C517        C  0.70538522  0.79879992  0.28340600    -0.07400
C518        C  0.72065179  0.82302223  0.31245451     0.13500
C519        C  0.73622158  0.87836127  0.31331672    -0.24200
H520        H  0.73533634  0.81291808  0.36340743     0.14700
H521        H  0.67611689  0.72881112  0.26310403     0.14800
C522        C  0.67304125  0.66455955  0.31344199    -0.24200
H523        H  0.74715526  0.89060710  0.33812850     0.05000
H524        H  0.70388347  0.90267570  0.30531741     0.08200
H525        H  0.76945885  0.88501363  0.29726242     0.08200
H526        H  0.70461431  0.63978981  0.32180546     0.08200
H527        H  0.63945444  0.65933705  0.32947035     0.08200
H528        H  0.66199732  0.65209282  0.28869874     0.05000
C529        C  0.78643312  0.01810274  0.26995791    -0.20800
C530        C  0.80702676  0.01346939  0.23872877    -0.07400
C531        C  0.82724178  0.05725197  0.22314074     0.13500
C532        C  0.82553034  0.10447487  0.23911244    -0.20900
C533        C  0.80393758  0.10902242  0.27004865    -0.07400
C534        C  0.78482671  0.06517562  0.28584498     0.13500
C535        C  0.76037078  0.06838728  0.31881161    -0.24200
H536        H  0.76933366  0.98493111  0.28138847     0.14700
H537        H  0.84162238  0.13788044  0.22744765     0.14800
C538        C  0.84910631  0.05625988  0.18936338    -0.24200
H539        H  0.74576753  0.03078748  0.32710619     0.05000
H540        H  0.72770177  0.09521810  0.31757878     0.08200
H541        H  0.78834933  0.08186529  0.33705366     0.08200
H542        H  0.82687663  0.08235541  0.17348374     0.08200
H543        H  0.84867114  0.01786456  0.17833538     0.08200
H544        H  0.88930116  0.06950434  0.19004750     0.05000
C545        C  0.75094226  0.04261028  0.11667660    -0.20800
C546        C  0.71186327  0.00736032  0.12397213    -0.07400
C547        C  0.66246538  0.01663651  0.11157449     0.13500
C548        C  0.65346832  0.06132916  0.09350158    -0.20900
C549        C  0.69212958  0.09777916  0.08756252    -0.07400
C550        C  0.74189170  0.08752355  0.09903086     0.13500
C551        C  0.78568472  0.12392276  0.09381677    -0.24200
H552        H  0.78917898  0.03585512  0.12562179     0.14700
H553        H  0.61524193  0.06820349  0.08449602     0.14800
C554        C  0.61899062  0.97995301  0.11697598    -0.24200
H555        H  0.82163686  0.10961896  0.10482940     0.05000
H556        H  0.77697873  0.16123180  0.10520403     0.08200
H557        H  0.79268790  0.12904956  0.06745339     0.08200
H558        H  0.60974142  0.97759414  0.14320000     0.08200
H559        H  0.62949051  0.94160787  0.10775462     0.08200
H560        H  0.58382119  0.99230972  0.10413358     0.05000
O561        O  0.70059550  0.79644698  0.65586708    -0.85900
O562        O  0.80543330  0.78785830  0.64740160    -0.82900
C563        C  0.80605348  0.81469720  0.62206658     0.97600
O564        O  0.80305237  0.86244426  0.62471614    -0.83000
O565        O  0.77443308  0.95540429  0.64832004    -0.85600
C566        C  0.72768859  0.96357618  0.64371947     1.02100
O567        O  0.69447753  0.93681366  0.65827434    -0.78400
O568        O  0.65644934  0.84835435  0.68681504    -0.78600
C569        C  0.65853053  0.81654543  0.66382134     1.02100
O570        O  0.71516680  0.79164040  0.72402447    -0.85900
O571        O  0.81961153  0.79954524  0.71542751    -0.82900
C572        C  0.86166561  0.81931654  0.70721646     0.97600
O573        O  0.86468917  0.84746910  0.68233954    -0.83000
O574        O  0.82805060  0.93925576  0.70637672    -0.85600
C575        C  0.79476105  0.96774763  0.71920896     1.02100
O576        O  0.74782810  0.95905265  0.71591364    -0.78400
O577        O  0.71769598  0.86782005  0.74425756    -0.78500
C578        C  0.71379244  0.82016089  0.74848568     1.02000
Cr579      Cr  0.76032819  0.79890081  0.68555816     1.93700
Cr580      Cr  0.81363339  0.89825413  0.66671609     1.93200
Cr581      Cr  0.70803624  0.90016149  0.70023408     1.39100
O582        O  0.76067569  0.86642998  0.68421083    -1.23600
O583        O  0.67562320  0.72663099  0.94107899    -0.85900
O584        O  0.75209383  0.72095991  0.98458707    -0.82900
C585        C  0.78799965  0.70362535  0.50186204     0.97600
O586        O  0.81496954  0.66778751  0.99175444    -0.83000
O587        O  0.74841291  0.58520359  0.98631077    -0.85600
C588        C  0.71799809  0.55308041  0.97447831     1.02100
O589        O  0.70289192  0.55804647  0.94533038    -0.78400
O590        O  0.65105505  0.64669777  0.94394056    -0.78600
C591        C  0.64304079  0.69295212  0.94962853     1.02100
O592        O  0.75466868  0.72537623  0.88992861    -0.85900
O593        O  0.83121469  0.72252143  0.93406745    -0.82900
C594        C  0.86288124  0.68818140  0.92525478     0.97600
O595        O  0.85194206  0.64182389  0.92855665    -0.83000
O596        O  0.79502001  0.55491295  0.92652615    -0.85600
C597        C  0.77919926  0.55220663  0.89745688     1.02100
O598        O  0.75237405  0.58764639  0.88579503    -0.78400
O599        O  0.69045998  0.67456885  0.88124740    -0.78500
C600        C  0.71945310  0.71040518  0.87179232     1.02000
Cr601      Cr  0.75328887  0.71888234  0.93730405     1.93700
Cr602      Cr  0.79906321  0.61544888  0.95690343     1.93200
Cr603      Cr  0.70285869  0.61944282  0.91534658     1.39100
O604        O  0.75175459  0.65159318  0.93647391    -1.23600
O605        O  0.21854545  0.76352458  0.76810733    -0.85900
O606        O  0.21683331  0.84331650  0.80946676    -0.82900
C607        C  0.18105871  0.87284772  0.80024881     0.97600
O608        O  0.13532772  0.86160464  0.80559527    -0.83000
O609        O  0.05085021  0.80295821  0.80783680    -0.85600
C610        C  0.04766603  0.78656306  0.77901266     1.02100
O611        O  0.08157097  0.75732333  0.76809104    -0.78400
O612        O  0.16914807  0.69724099  0.76290725    -0.78600
C613        C  0.20484361  0.72530276  0.75227611     1.02100
O614        O  0.22698897  0.69023299  0.82155434    -0.85900
O615        O  0.22245966  0.77010168  0.86251260    -0.82900
C616        C  0.20452479  0.80547217  0.87926307     0.97600
O617        O  0.16594453  0.83022184  0.86958047    -0.83000
O618        O  0.08510105  0.76169126  0.86851575    -0.85600
C619        C  0.05377139  0.72882307  0.85862911     1.02100
O620        O  0.05748130  0.71149370  0.82994200    -0.78400
O621        O  0.14836022  0.66170945  0.82724239    -0.78500
C622        C  0.19557171  0.65611376  0.83079598     1.02000
Cr623      Cr  0.21604617  0.76648081  0.81550179     1.93700
Cr624      Cr  0.11248617  0.81040055  0.83654164     1.93200
Cr625      Cr  0.11666128  0.71093874  0.79828137     1.39100
O626        O  0.14878707  0.76238483  0.81695318    -1.23600
O627        O  0.28790105  0.76566025  0.51845304    -0.85900
O628        O  0.28477007  0.68493256  0.55969605    -0.82900
C629        C  0.31689709  0.65166173  0.55014842     0.97600
O630        O  0.36377842  0.65956303  0.55349853    -0.86200
O631        O  0.45257211  0.71093702  0.54968924    -0.85600
C632        C  0.45462472  0.72916576  0.52109900     1.02100
O633        O  0.42266904  0.76222132  0.51203486    -0.78400
O634        O  0.34027987  0.82954606  0.51275940    -0.78600
C635        C  0.30307666  0.80027701  0.00264783     1.02100
O636        O  0.29119251  0.83912285  0.57197368    -0.85900
O637        O  0.29094592  0.75796210  0.61292045    -0.82900
C638        C  0.30743274  0.72105627  0.62914491     0.97600
O639        O  0.34408644  0.69424480  0.61852988    -0.83000
O640        O  0.43112512  0.75488277  0.61227667    -0.85600
C641        C  0.46482444  0.78358275  0.60042916     1.02100
O642        O  0.45907829  0.80179112  0.57213964    -0.78400
O643        O  0.37240660  0.85872425  0.57688563    -0.78500
C644        C  0.32628260  0.86923916  0.58166601     1.02000
Cr645      Cr  0.29382623  0.76180727  0.56562960     1.93700
Cr646      Cr  0.39506294  0.70882047  0.58238431     1.93200
Cr647      Cr  0.39562431  0.80936427  0.54484137     1.39100
O648        O  0.36119099  0.75986371  0.56437098    -1.23600
O649        O  0.18871072  0.22316321  0.71731701    -0.85900
O650        O  0.29326573  0.23526514  0.72569697    -0.82900
C651        C  0.29507742  0.20856348  0.75097016     0.97600
O652        O  0.29159355  0.16064161  0.74828675    -0.83000
O653        O  0.26461061  0.06689010  0.72313774    -0.85600
C654        C  0.21785039  0.05770955  0.72670511     1.02100
O655        O  0.18469367  0.08396197  0.71185365    -0.78400
O656        O  0.14573043  0.17243634  0.68532403    -0.78600
C657        C  0.14734337  0.20115622  0.70988574     1.02100
O658        O  0.20306593  0.23252205  0.64904557    -0.85900
O659        O  0.30842822  0.22592658  0.65790835    -0.82900
C660        C  0.35063915  0.20636490  0.66638916     0.97600
O661        O  0.35322599  0.17722664  0.69084252    -0.83000
O662        O  0.31870446  0.08529203  0.66545760    -0.85600
C663        C  0.28648387  0.05734501  0.65098036     1.02100
O664        O  0.23932883  0.06534272  0.65396103    -0.78400
O665        O  0.20724376  0.15706368  0.62787594    -0.78500
C666        C  0.20144953  0.20458315  0.62432566     1.02000
Cr667      Cr  0.24840642  0.22416874  0.68748033     1.93700
Cr668      Cr  0.30301584  0.12527736  0.70564631     1.93200
Cr669      Cr  0.19826368  0.12257412  0.67093121     1.39100
O670        O  0.25005827  0.15663339  0.68784980    -1.23600
O671        O  0.16052894  0.30046618  0.93256469    -0.85900
O672        O  0.23879357  0.30151153  0.88962439    -0.82900
C673        C  0.27887826  0.31217673  0.87469687     0.97600
O674        O  0.30899874  0.34539957  0.88629628    -0.83000
O675        O  0.25044033  0.43404733  0.88981013    -0.85600
C676        C  0.22204011  0.46880113  0.90050615     1.02100
O677        O  0.20343772  0.46589888  0.92902745    -0.78400
O678        O  0.14290636  0.38198114  0.92859008    -0.78600
C679        C  0.13089552  0.33640412  0.92368294     1.02100
O680        O  0.23733751  0.29432666  0.98369642    -0.85900
O681        O  0.31454646  0.28975703  0.94165977    -0.82900
C682        C  0.34707637  0.32022617  0.95391182     0.97600
O683        O  0.34162807  0.36757473  0.95158860    -0.83000
O684        O  0.29415555  0.45948202  0.95171236    -0.85600
C685        C  0.27657742  0.46340002  0.98032674     1.02100
O686        O  0.24417034  0.43178092  0.99045129    -0.78400
O687        O  0.17699602  0.34955873  0.99289532    -0.78500
C688        C  0.20014779  0.31253940  0.50134919     1.02000
Cr689      Cr  0.23793157  0.30132259  0.93695542     1.93700
Cr690      Cr  0.29505942  0.39926900  0.92094865     1.93200
Cr691      Cr  0.19513733  0.40436464  0.95895952     1.39100
O692        O  0.24257518  0.36816968  0.93904307    -1.23600
O693        O  0.77811149  0.30314873  0.76705766    -0.85900
O694        O  0.78986756  0.19812722  0.77712237    -0.82900
C695        C  0.81028905  0.15720918  0.78733857     0.97600
O696        O  0.83657614  0.15692530  0.81297952    -0.83000
O697        O  0.92812640  0.19617185  0.79041364    -0.85600
C698        C  0.95664157  0.22999767  0.77804982     1.02100
O699        O  0.94594079  0.27662894  0.78043823    -0.78400
O700        O  0.85599811  0.30227756  0.74906693    -0.78600
C701        C  0.80862174  0.30503363  0.74359256     1.02100
O702        O  0.77805596  0.31958611  0.83522046    -0.85900
O703        O  0.77212256  0.21431574  0.84438326    -0.82900
C704        C  0.79629104  0.21497160  0.87064336     0.97600
O705        O  0.84411846  0.22081027  0.86975287    -0.83000
O706        O  0.93852038  0.25206797  0.84810661    -0.85600
C707        C  0.94511447  0.29924377  0.85167202     1.02100
O708        O  0.91799344  0.33106502  0.83609925    -0.78400
O709        O  0.83002084  0.36422419  0.80465043    -0.78500
C710        C  0.79866087  0.36185300  0.82790136     1.02000
Cr711      Cr  0.78439730  0.25896806  0.80614988     1.93700
Cr712      Cr  0.88398116  0.21033372  0.82891261     1.93200
Cr713      Cr  0.88465377  0.31457937  0.79360071     1.39100
O714        O  0.85167287  0.26130568  0.80953977    -1.23600
O715        O  0.70651947  0.25886335  0.51002346    -0.85900
O716        O  0.71314776  0.33395028  0.55369580    -0.82900
C717        C  0.67963314  0.36565196  0.54401778     0.97600
O718        O  0.63319001  0.35695074  0.54878849    -0.83000
O719        O  0.54510695  0.30343122  0.54965277    -0.85600
C720        C  0.53792141  0.28607715  0.52130796     1.02100
O721        O  0.57076664  0.25662330  0.50903334    -0.78400
O722        O  0.65737162  0.19287267  0.50381761    -0.78600
C723        C  0.69206537  0.22044335  0.99413000     1.02100
O724        O  0.71222316  0.17954764  0.55998857    -0.85900
O725        O  0.71294198  0.25536913  0.60419857    -0.82900
C726        C  0.69940509  0.29210899  0.62150495     0.97600
O727        O  0.66270996  0.32019149  0.61210392    -0.83000
O728        O  0.57617562  0.25717019  0.60936922    -0.85600
C729        C  0.54178509  0.22835948  0.59844949     1.02100
O730        O  0.54500210  0.21105836  0.56979024    -0.78400
O731        O  0.63289793  0.15674430  0.56791750    -0.78500
C732        C  0.67966809  0.14747244  0.57052213     1.02000
Cr733      Cr  0.70639551  0.25683658  0.55705725     1.93700
Cr734      Cr  0.60692191  0.30598260  0.57875371     1.93200
Cr735      Cr  0.60442126  0.20792327  0.53881718     1.39100
O736        O  0.63935094  0.25687397  0.55828548    -1.23600
C737        C  0.79650281  0.21015977  0.93094482    -0.20800
C738        C  0.76821934  0.20949379  0.90203450    -0.07400
C739        C  0.71389513  0.20640860  0.90409355     0.13500
C740        C  0.69012061  0.20670082  0.93467754    -0.20900
C741        C  0.71862462  0.21077177  0.96315758    -0.07400
C742        C  0.77254700  0.21101621  0.96134621     0.13500
C743        C  0.80526144  0.21176828  0.99147438    -0.24200
H744        H  0.83775238  0.21152313  0.92985991     0.14700
H745        H  0.64886160  0.20641459  0.93633660     0.14800
C746        C  0.67990001  0.20424555  0.87458301    -0.24200
H747        H  0.84642568  0.20804599  0.98559857     0.05000
H748        H  0.79466705  0.17945644  0.00758615     0.08200
H749        H  0.80030361  0.24823802  0.00463758     0.08200
H750        H  0.68951873  0.17025827  0.85980168     0.08200
H751        H  0.68429553  0.23959070  0.85995426     0.08200
H752        H  0.63895627  0.20119209  0.88121918     0.05000
C753        C  0.74028172  0.33576365  0.70646183    -0.20800
C754        C  0.78662584  0.30915926  0.71037095    -0.07400
C755        C  0.80580557  0.28085753  0.68401749     0.13500
C756        C  0.77704373  0.27775045  0.65531335    -0.20900
C757        C  0.72915088  0.30197963  0.65190088    -0.07400
C758        C  0.71148307  0.33284792  0.67766283     0.13500
C759        C  0.66169362  0.36139261  0.67569524    -0.24200
H760        H  0.72559294  0.35775771  0.72660803     0.14700
H761        H  0.79186991  0.25499098  0.63556337     0.14800
C762        C  0.85511965  0.25151927  0.68650927    -0.24200
H763        H  0.65349910  0.38260157  0.69838004     0.05000
H764        H  0.62987491  0.33424221  0.67163235     0.08200
H765        H  0.66317947  0.38960236  0.65557997     0.08200
H766        H  0.85300104  0.22387927  0.70685593     0.08200
H767        H  0.88721864  0.27826893  0.69071742     0.08200
H768        H  0.86345201  0.22985391  0.66401437     0.05000
C769        C  0.43635910  0.29067811  0.95275245    -0.20800
C770        C  0.39288844  0.30235523  0.97097054    -0.07400
C771        C  0.39710652  0.30890923  0.00480637     0.13500
C772        C  0.44486047  0.30381823  0.01972694    -0.20900
C773        C  0.48813406  0.29494749  0.50446748    -0.07400
C774        C  0.48445062  0.28560725  0.96759199     0.13500
C775        C  0.45250504  0.35001416  0.55111635    -0.24200
H776        H  0.43296341  0.28763922  0.92666911     0.14700
H777        H  0.44751780  0.30825872  0.04572571     0.14800
C778        C  0.35117880  0.32182992  0.02523874    -0.24200
H779        H  0.51968393  0.27434692  0.92026096     0.05000
H780        H  0.48383221  0.37841112  0.54982131     0.08200
H781        H  0.55946676  0.30458152  0.94993451     0.08200
H782        H  0.32215153  0.29130231  0.02281237     0.08200
H783        H  0.33449102  0.35871212  0.01724043     0.08200
H784        H  0.36110935  0.32522398  0.05133919     0.05000
C785        C  0.00301894  0.28021985  0.89776043    -0.20800
C786        C  0.98807874  0.31461593  0.87309318    -0.07400
C787        C  0.01964484  0.35692114  0.86626280     0.13500
C788        C  0.06548580  0.36272217  0.88351310    -0.20900
C789        C  0.08157893  0.32691158  0.90696779    -0.07400
C790        C  0.04937193  0.28552527  0.91453093     0.13500
C791        C  0.06309606  0.24728022  0.94046116    -0.24200
H792        H  0.97891804  0.24777843  0.90326454     0.14700
H793        H  0.08980561  0.39489083  0.87792607     0.14800
C794        C  0.00685976  0.39470289  0.83984850    -0.24200
H795        H  0.03234809  0.21874299  0.94416691     0.05000
H796        H  0.06950617  0.26714951  0.96385545     0.08200
H797        H  0.09812394  0.22629269  0.93343598     0.08200
H798        H  0.97013265  0.41382542  0.84542868     0.08200
H799        H  0.00404302  0.37481348  0.81617579     0.08200
H800        H  0.03648184  0.42475100  0.83748487     0.05000
C801        C  0.44414788  0.21785972  0.66632525    -0.20800
C802        C  0.39840829  0.21632608  0.64848677    -0.07400
C803        C  0.40040908  0.21691928  0.61427660     0.13500
C804        C  0.44800652  0.21946836  0.59887493    -0.20900
C805        C  0.49375506  0.22143671  0.61671341    -0.07400
C806        C  0.49176384  0.22045134  0.65094129     0.13500
C807        C  0.53944044  0.22012363  0.67141993    -0.24200
H808        H  0.44261631  0.21636541  0.69256378     0.14700
H809        H  0.44938122  0.22063059  0.57262635     0.14800
C810        C  0.35291648  0.21255728  0.59383989    -0.24200
H811        H  0.53059855  0.21521358  0.69758975     0.05000
H812        H  0.56014891  0.25675277  0.66871587     0.08200
H813        H  0.56452014  0.18809296  0.66396692     0.08200
H814        H  0.32762229  0.24579521  0.59814284     0.08200
H815        H  0.33239414  0.17683343  0.60008862     0.08200
H816        H  0.36186891  0.21160352  0.56751601     0.05000
C817        C  0.04700757  0.25034971  0.76919645    -0.20800
C818        C  0.00579571  0.21770362  0.76246134    -0.07400
C819        C  0.01192159  0.17848393  0.73962749     0.13500
C820        C  0.05875267  0.17398185  0.72331513    -0.20900
C821        C  0.09974889  0.20785477  0.72916670    -0.07400
C822        C  0.09379580  0.24604663  0.75304294     0.13500
C823        C  0.13559250  0.28326367  0.76145187    -0.24200
H824        H  0.04225472  0.28011516  0.78709382     0.14700
H825        H  0.06299318  0.14392410  0.70561785     0.14800
C826        C  0.96878139  0.14284452  0.73140202    -0.24200
H827        H  0.12323034  0.31111991  0.78011034     0.05000
H828        H  0.14685791  0.30523144  0.73953076     0.08200
H829        H  0.16904831  0.26249916  0.77142514     0.08200
H830        H  0.93554518  0.16506923  0.72246304     0.08200
H831        H  0.95749711  0.12072533  0.75324735     0.08200
H832        H  0.97975382  0.11526157  0.71224552     0.05000
C833        C  0.17934097  0.28146289  0.59093014    -0.20800
C834        C  0.19336065  0.22932232  0.59188700    -0.07400
C835        C  0.20303603  0.20424910  0.56216225     0.13500
C836        C  0.20083960  0.23220450  0.53306556    -0.20900
C837        C  0.19027940  0.28492301  0.53239052    -0.07400
C838        C  0.17800314  0.30952964  0.56170548     0.13500
C839        C  0.16628210  0.36573603  0.56261827    -0.24200
H840        H  0.17112781  0.30113903  0.61337200     0.14700
H841        H  0.20962229  0.21295174  0.51053341     0.14800
C842        C  0.21783908  0.14871116  0.56058571    -0.24200
H843        H  0.15876741  0.37910134  0.58770162     0.05000
H844        H  0.13185017  0.37386524  0.54780777     0.08200
H845        H  0.19911755  0.38771097  0.55290211     0.08200
H846        H  0.18684520  0.12476623  0.57081524     0.08200
H847        H  0.25369526  0.14215515  0.57428321     0.08200
H848        H  0.22447127  0.13595807  0.53527310     0.05000
C849        C  0.28498129  0.20700357  0.81112637    -0.20800
C850        C  0.29915417  0.23435677  0.78326141    -0.07400
C851        C  0.31293736  0.28673945  0.78676628     0.13500
C852        C  0.30861517  0.31046539  0.81725949    -0.20900
C853        C  0.29028344  0.28393198  0.84431030    -0.07400
C854        C  0.28021659  0.23092307  0.84144058     0.13500
C855        C  0.26491723  0.19889207  0.87032394    -0.24200
H856        H  0.27541217  0.16692426  0.80900004     0.14700
H857        H  0.31728594  0.35071323  0.81964841     0.14800
C858        C  0.33193527  0.31861317  0.75873348    -0.24200
H859        H  0.26295004  0.15773075  0.86417273     0.05000
H860        H  0.22662565  0.21026959  0.87912069     0.08200
H861        H  0.29336459  0.20342661  0.89006167     0.08200
H862        H  0.30097062  0.32463234  0.74077982     0.08200
H863        H  0.36500099  0.29956173  0.74709490     0.08200
H864        H  0.34468486  0.35696350  0.76672098     0.05000
C865        C  0.26974338  0.99808399  0.60527970    -0.20800
C866        C  0.30169156  0.01234759  0.63124862    -0.07400
C867        C  0.34152405  0.97903964  0.64059145     0.13500
C868        C  0.34795187  0.93271524  0.62398350    -0.20900
C869        C  0.31506916  0.91789036  0.59867675    -0.07400
C870        C  0.27571782  0.95136906  0.58903192     0.13500
C871        C  0.24059419  0.93861068  0.56130468    -0.24200
H872        H  0.23897329  0.02336435  0.59804985     0.14700
H873        H  0.37846227  0.90718308  0.63130982     0.14800
C874        C  0.37581731  0.99068597  0.66895894    -0.24200
H875        H  0.21335624  0.97006886  0.55616027     0.05000
H876        H  0.21801215  0.90410109  0.56734622     0.08200
H877        H  0.26319950  0.93164056  0.53897932     0.08200
H878        H  0.35262470  0.99535495  0.69129128     0.08200
H879        H  0.39760175  0.02616869  0.66411288     0.08200
H880        H  0.40377348  0.95960139  0.67344302     0.05000
C881        C  0.24436671  0.54523288  0.50578529    -0.20800
C882        C  0.28898865  0.50858448  0.00033819    -0.07400
C883        C  0.33808414  0.53027853  0.00062886     0.13500
C884        C  0.34616262  0.57586605  0.01747097    -0.20900
C885        C  0.30198779  0.60207606  0.53484698    -0.07400
C886        C  0.25273515  0.59138455  0.52245337     0.13500
C887        C  0.20923340  0.62856790  0.52566464    -0.24200
H888        H  0.20710948  0.53725713  0.49577624     0.14700
H889        H  0.38390128  0.59222247  0.01694792     0.14800
C890        C  0.38261497  0.50508537  0.98391467    -0.24200
H891        H  0.17385735  0.61402833  0.51413052     0.05000
H892        H  0.21922660  0.66516391  0.51362089     0.08200
H893        H  0.20084513  0.63526883  0.55169972     0.08200
H894        H  0.37674348  0.50508072  0.95727285     0.08200
H895        H  0.38682506  0.46525847  0.99279379     0.08200
H896        H  0.41899094  0.52536970  0.98873670     0.05000
C897        C  0.24113520  0.99651947  0.77019773    -0.20800
C898        C  0.20422496  0.01364066  0.74774035    -0.07400
C899        C  0.15925242  0.98472681  0.74355839     0.13500
C900        C  0.15329757  0.93927716  0.76120194    -0.20900
C901        C  0.19109058  0.92132384  0.78273981    -0.07400
C902        C  0.23543040  0.95076271  0.78749962     0.13500
C903        C  0.27649213  0.93496097  0.81107150    -0.24200
H904        H  0.27554696  0.01867882  0.77383188     0.14700
H905        H  0.11905454  0.91683254  0.75750998     0.14800
C906        C  0.11819777  0.00008372  0.71982754    -0.24200
H907        H  0.30730567  0.96387705  0.81271529     0.05000
H908        H  0.29424083  0.89866653  0.80312696     0.08200
H909        H  0.25982104  0.93019686  0.83564143     0.08200
H910        H  0.13427129  0.00220141  0.69494542     0.08200
H911        H  0.10206237  0.03765498  0.72674667     0.08200
H912        H  0.08630522  0.97223132  0.71941756     0.05000
C913        C  0.30577639  0.82049425  0.94392834    -0.20800
C914        C  0.27667007  0.81237390  0.97191259    -0.07400
C915        C  0.22270808  0.81108496  0.96951576     0.13500
C916        C  0.19959682  0.81362092  0.93884274    -0.20900
C917        C  0.22910144  0.81635281  0.91065053    -0.07400
C918        C  0.28269713  0.82195381  0.91321307     0.13500
C919        C  0.31572427  0.82902168  0.88360342    -0.24200
H920        H  0.34700761  0.82251182  0.94591421     0.14700
H921        H  0.15848930  0.80998535  0.93674660     0.14800
C922        C  0.18958648  0.81550310  0.49990290    -0.24200
H923        H  0.35626305  0.83551805  0.89022662     0.05000
H924        H  0.30232592  0.86262649  0.86957577     0.08200
H925        H  0.31427756  0.79465009  0.86804480     0.08200
H926        H  0.20035259  0.84751005  0.51606688     0.08200
H927        H  0.19434507  0.77882970  0.51302429     0.08200
H928        H  0.14847904  0.81956311  0.49391271     0.05000
C929        C  0.31058036  0.71401661  0.68924283    -0.20800
C930        C  0.28223332  0.71015924  0.66062060    -0.07400
C931        C  0.22861797  0.70360959  0.66263908     0.13500
C932        C  0.20429424  0.70517052  0.69309141    -0.20900
C933        C  0.23221059  0.71392872  0.72151491    -0.07400
C934        C  0.28630114  0.71621137  0.71965451     0.13500
C935        C  0.31879693  0.72108557  0.74968156    -0.24200
H936        H  0.35162002  0.71846117  0.68767834     0.14700
H937        H  0.16310821  0.70239575  0.69450041     0.14800
C938        C  0.19689778  0.69529964  0.63260208    -0.24200
H939        H  0.36009792  0.71864797  0.74390694     0.05000
H940        H  0.30956624  0.68980466  0.76692039     0.08200
H941        H  0.31219151  0.75842241  0.76150358     0.08200
H942        H  0.21127687  0.66143730  0.61932230     0.08200
H943        H  0.19873127  0.72921576  0.61650604     0.08200
H944        H  0.15617290  0.68856907  0.63864164     0.05000
C945        C  0.19491587  0.56234394  0.83232587    -0.20800
C946        C  0.21227144  0.60812734  0.84606186    -0.07400
C947        C  0.23423290  0.60749131  0.87730272     0.13500
C948        C  0.23610333  0.56138426  0.89469369    -0.20900
C949        C  0.21701545  0.51602603  0.88137546    -0.07400
C950        C  0.19767398  0.51610576  0.84945501     0.13500
C951        C  0.17786396  0.46803584  0.83401266    -0.24200
H952        H  0.17732438  0.56321590  0.80854088     0.14700
H953        H  0.25236634  0.56070001  0.91887545     0.14800
C954        C  0.25327962  0.65567543  0.89294413    -0.24200
H955        H  0.16250837  0.47531511  0.80931395     0.05000
H956        H  0.14673604  0.45189674  0.84907154     0.08200
H957        H  0.20903672  0.43960534  0.83186482     0.08200
H958        H  0.22127786  0.68298446  0.89580187     0.08200
H959        H  0.28346188  0.67313671  0.87764397     0.08200
H960        H  0.26965652  0.64822956  0.91735748     0.05000
C961        C  0.51992972  0.75646569  0.48103809    -0.20800
C962        C  0.49869329  0.71708315  0.50002041    -0.07400
C963        C  0.53132389  0.67329963  0.00656355     0.13500
C964        C  0.57681564  0.66736223  0.98912931    -0.20900
C965        C  0.59502203  0.70492561  0.96751132    -0.07400
C966        C  0.56549893  0.74932835  0.96265339     0.13500
C967        C  0.58659114  0.79328306  0.44405588    -0.24200
H968        H  0.50134761  0.79328600  0.48038307     0.14700
H969        H  0.59875403  0.63274560  0.99270867     0.14800
C970        C  0.51397814  0.63009724  0.02817168    -0.24200
H971        H  0.56036282  0.82655091  0.44409501     0.05000
H972        H  0.59159539  0.78088192  0.41852078     0.08200
H973        H  0.61802835  0.80647255  0.94559296     0.08200
H974        H  0.47464761  0.61861145  0.02149791     0.08200
H975        H  0.51526920  0.64177560  0.05398504     0.08200
H976        H  0.53881453  0.59598142  0.02573398     0.05000
C977        C  0.93766268  0.66078618  0.89273620    -0.20800
C978        C  0.91361460  0.70001676  0.91046936    -0.07400
C979        C  0.93936845  0.74709767  0.91389324     0.13500
C980        C  0.98645279  0.75437366  0.89803226    -0.20900
C981        C  0.00861854  0.71594219  0.87880617    -0.07400
C982        C  0.98457436  0.66792372  0.87712615     0.13500
C983        C  0.00846000  0.62353460  0.85952154    -0.24200
H984        H  0.91917463  0.62401462  0.89041137     0.14700
H985        H  0.00518476  0.79112094  0.89973117     0.14800
C986        C  0.91811313  0.78954452  0.93437035    -0.24200
H987        H  0.98650298  0.58776595  0.86319833     0.05000
H988        H  0.04774608  0.61700275  0.86872695     0.08200
H989        H  0.00957128  0.63104822  0.83305432     0.08200
H990        H  0.91184280  0.77568651  0.95954061     0.08200
H991        H  0.88158010  0.80329738  0.92394796     0.08200
H992        H  0.94453070  0.82258746  0.93548958     0.05000
C993        C  0.77471057  0.45798036  0.89549730    -0.20800
C994        C  0.78488031  0.50409350  0.87922199    -0.07400
C995        C  0.79607117  0.50324543  0.84579667     0.13500
C996        C  0.79751212  0.45632220  0.82962810    -0.20900
C997        C  0.78808237  0.40983988  0.84584758    -0.07400
C998        C  0.77592697  0.41087337  0.87929847     0.13500
C999        C  0.76570320  0.36276020  0.89835592    -0.24200
H1000       H  0.76506856  0.45890801  0.92110047     0.14700
H1001       H  0.80706384  0.45596673  0.80402686     0.14800
C1002       C  0.80855392  0.55139495  0.82733977    -0.24200
H1003       H  0.75779327  0.37088715  0.92430312     0.05000
H1004       H  0.79941192  0.33717595  0.89728323     0.08200
H1005       H  0.73187572  0.34289532  0.88828716     0.08200
H1006       H  0.84098770  0.57123803  0.83915722     0.08200
H1007       H  0.77494155  0.57702398  0.82671366     0.08200
H1008       H  0.81947035  0.54330127  0.80183934     0.05000
C1009       C  0.65423633  0.43128347  0.00402718    -0.20800
C1010       C  0.69274015  0.41341993  0.52642890    -0.07400
C1011       C  0.73841417  0.44087704  0.53119408     0.13500
C1012       C  0.74580199  0.48706729  0.51437298    -0.20900
C1013       C  0.70568606  0.50623401  0.99319829    -0.07400
C1014       C  0.66126433  0.47723822  0.98727598     0.13500
C1015       C  0.62036961  0.49460994  0.96394264    -0.24200
H1016       H  0.62010619  0.40919047  0.99918303     0.14700
H1017       H  0.78101763  0.50774311  0.51784028     0.14800
C1018       C  0.77904415  0.42252260  0.55428155    -0.24200
H1019       H  0.58656653  0.46911125  0.96453269     0.05000
H1020       H  0.63515640  0.49432322  0.93873767     0.08200
H1021       H  0.60735854  0.53356968  0.97043533     0.08200
H1022       H  0.79468170  0.38554584  0.54582180     0.08200
H1023       H  0.76268700  0.41786614  0.57895724     0.08200
H1024       H  0.81126454  0.44985885  0.55591127     0.05000
C1025       C  0.56555934  0.80123041  0.66595165    -0.20800
C1026       C  0.61033920  0.80326269  0.64722878    -0.07400
C1027       C  0.60693691  0.79834939  0.61318876     0.13500
C1028       C  0.55876236  0.79256607  0.59880825    -0.20900
C1029       C  0.51390552  0.79102098  0.61752871    -0.07400
C1030       C  0.51747194  0.79472804  0.65163677     0.13500
C1031       C  0.47084314  0.79370771  0.67303718    -0.24200
H1032       H  0.56821227  0.80525601  0.69206575     0.14700
H1033       H  0.55614751  0.78888415  0.57266362     0.14800
C1034       C  0.65348385  0.80132784  0.59179573    -0.24200
H1035       H  0.48064610  0.80036135  0.69889124     0.05000
H1036       H  0.45198556  0.75592403  0.67156777     0.08200
H1037       H  0.44375750  0.82398905  0.66533626     0.08200
H1038       H  0.67985801  0.76941382  0.59750494     0.08200
H1039       H  0.67324615  0.83821566  0.59569889     0.08200
H1040       H  0.64347663  0.79869382  0.56567112     0.05000
C1041       C  0.95416366  0.80218707  0.70906367    -0.20800
C1042       C  0.90842666  0.80980992  0.72604108    -0.07400
C1043       C  0.90929448  0.81344642  0.76016995     0.13500
C1044       C  0.95561983  0.80683866  0.77658053    -0.20900
C1045       C  0.00126437  0.79722306  0.75972896    -0.07400
C1046       C  0.00063410  0.79581506  0.72539743     0.13500
C1047       C  0.04859906  0.78912182  0.70564483    -0.24200
H1048       H  0.95344767  0.80108948  0.68281432     0.14700
H1049       H  0.95594119  0.80853567  0.80281759     0.14800
C1050       C  0.86210885  0.82664942  0.77928354    -0.24200
H1051       H  0.04115640  0.79329971  0.67924643     0.05000
H1052       H  0.06471228  0.75045676  0.70952483     0.08200
H1053       H  0.07707350  0.81845767  0.71260907     0.08200
H1054       H  0.83302326  0.79625791  0.77656180     0.08200
H1055       H  0.84638538  0.86347938  0.77041849     0.08200
H1056       H  0.87034556  0.83066565  0.80557889     0.05000
C1057       C  0.81959399  0.73592495  0.58946512    -0.20800
C1058       C  0.80872247  0.78873003  0.58997530    -0.07400
C1059       C  0.79587341  0.81340301  0.56045091     0.13500
C1060       C  0.79181719  0.78437137  0.53207386    -0.20900
C1061       C  0.80008226  0.73141625  0.53205544    -0.07400
C1062       C  0.81526688  0.70700518  0.56093937     0.13500
C1063       C  0.82414919  0.65026986  0.56221595    -0.24200
H1064       H  0.82990671  0.71659084  0.61176237     0.14700
H1065       H  0.78079344  0.80307731  0.50966435     0.14800
C1066       C  0.78459704  0.86975738  0.55839602    -0.24200
H1067       H  0.83402441  0.63714214  0.58707886     0.05000
H1068       H  0.85616442  0.63990163  0.54591863     0.08200
H1069       H  0.78912408  0.62986447  0.55446350     0.08200
H1070       H  0.81850374  0.89186305  0.56621124     0.08200
H1071       H  0.75140409  0.87937482  0.57390534     0.08200
H1072       H  0.77516838  0.88194100  0.53327023     0.05000
C1073       C  0.72152345  0.79099691  0.83977283    -0.20800
C1074       C  0.71179065  0.73803232  0.84035765    -0.07400
C1075       C  0.69841033  0.71387225  0.81091857     0.13500
C1076       C  0.69613814  0.74290866  0.78220087    -0.20900
C1077       C  0.70849622  0.79533734  0.78122473    -0.07400
C1078       C  0.72013406  0.81986810  0.81084936     0.13500
C1079       C  0.73230725  0.87597759  0.81236610    -0.24200
H1080       H  0.73126433  0.80998773  0.86225588     0.14700
H1081       H  0.68662116  0.72332314  0.75989320     0.14800
C1082       C  0.68931044  0.65728815  0.80781276    -0.24200
H1083       H  0.74053639  0.88855379  0.83752745     0.05000
H1084       H  0.69931346  0.89848799  0.80337169     0.08200
H1085       H  0.76641107  0.88453771  0.79743505     0.08200
H1086       H  0.69593522  0.63547725  0.83033553     0.08200
H1087       H  0.64947303  0.65053014  0.79978586     0.08200
H1088       H  0.71563859  0.64139579  0.78931999     0.05000
C1089       C  0.78995452  0.01718738  0.76935630    -0.20800
C1090       C  0.80823475  0.01390966  0.73746248    -0.07400
C1091       C  0.82604705  0.05857598  0.72173083     0.13500
C1092       C  0.82411713  0.10541334  0.73813638    -0.20900
C1093       C  0.80521401  0.10859409  0.76985952    -0.07400
C1094       C  0.78874222  0.06381228  0.78588228     0.13500
C1095       C  0.76800460  0.06525070  0.81998770    -0.24200
H1096       H  0.77489880  0.98334430  0.78094578     0.14700
H1097       H  0.83808579  0.13929669  0.72631319     0.14800
C1098       C  0.84568238  0.05900889  0.68740200    -0.24200
H1099       H  0.75407474  0.02725598  0.82799684     0.05000
H1100       H  0.73560739  0.09245708  0.82126183     0.08200
H1101       H  0.79819710  0.07721920  0.83719684     0.08200
H1102       H  0.82157772  0.08468130  0.67238118     0.08200
H1103       H  0.84585858  0.02080918  0.67608814     0.08200
H1104       H  0.88542123  0.07360367  0.68713177     0.05000
C1105       C  0.75329845  0.04333329  0.61543982    -0.20800
C1106       C  0.71432439  0.00775558  0.62238867    -0.07400
C1107       C  0.66524685  0.01652005  0.60944702     0.13500
C1108       C  0.65625008  0.06127677  0.59144725    -0.20900
C1109       C  0.69463421  0.09825560  0.58614780    -0.07400
C1110       C  0.74423027  0.08839413  0.59798894     0.13500
C1111       C  0.78768655  0.12544146  0.59348263    -0.24200
H1112       H  0.79149940  0.03672210  0.62452975     0.14700
H1113       H  0.61822338  0.06779749  0.58199686     0.14800
C1114       C  0.62222969  0.97909170  0.61410820    -0.24200
H1115       H  0.82350541  0.11144617  0.60483405     0.05000
H1116       H  0.77814329  0.16246359  0.60497120     0.08200
H1117       H  0.79536990  0.13106268  0.56723668     0.08200
H1118       H  0.61219012  0.97624945  0.64019312     0.08200
H1119       H  0.63367405  0.94103650  0.60485555     0.08200
H1120       H  0.58730333  0.99103140  0.60085156     0.05000
loop_ 
_geom_bond_atom_site_label_1 
_geom_bond_atom_site_label_2 
_geom_bond_distance 
_geom_bond_site_symmetry_2 
_ccdc_geom_bond_type 
O1          Cr19   1.979       .  S
O1            C9   1.263       .  A
O2          Cr19   1.992       .  S
O2            C3   1.258       .  A
C3            O4   1.260       .  A
C3          C498   1.495       .  S
O4          Cr20   1.994       .  S
O5          Cr20   1.977       .  S
O5            C6   1.262       .  A
C6            O7   1.267       .  A
C6          C546   1.494   1_565  S
O7          Cr21   2.001       .  S
O8          Cr21   1.994       .  S
O8            C9   1.264       .  A
C9          C466   1.473       .  S
O10         Cr19   1.988       .  S
O10          C18   1.259       .  A
O11         Cr19   1.976       .  S
O11          C12   1.263       .  A
C12          O13   1.267       .  A
C12         C482   1.478       .  S
O13         Cr20   2.001       .  S
O14         Cr20   1.998       .  S
O14          C15   1.266       .  A
C15          O16   1.258       .  A
C15         C530   1.471   1_565  S
O16         Cr21   1.972       .  S
O17         Cr21   2.006       .  S
O17          C18   1.264       .  A
C18         C517   1.495       .  S
Cr19         O22   1.772       .  S
Cr20         O22   1.770       .  S
Cr21         O22   1.770       .  S
O23         Cr41   2.034       .  S
O23          C31   1.272       .  A
O24         Cr41   1.949       .  S
O24         C585   1.250       .  A
C25         O584   1.250   1_554  A
C25         O586   1.268   1_554  A
C25         C501   1.486       .  S
O26         Cr42   2.032       .  S
O26         C585   1.267       .  A
O27         Cr42   1.966       .  S
O27          C28   1.262       .  A
C28          O29   1.272       .  A
C28         C453   1.484       .  S
O29         Cr43   2.025       .  S
O30         Cr43   1.942       .  S
O30          C31   1.254       .  A
C31         C405   1.490       .  S
O32         Cr41   1.949       .  S
O32          C40   1.252       .  A
O33         Cr41   2.039       .  S
O33          C34   1.275       .  A
C34          O35   1.256       .  A
C34         C418   1.469       .  S
O35         Cr42   1.948       .  S
O36         Cr42   2.022       .  S
O36          C37   1.268       .  A
C37          O38   1.258       .  A
C37         C434   1.482       .  S
O38         Cr43   1.970       .  S
O39         Cr43   2.034       .  S
O39          C40   1.270       .  A
C40         C514   1.493       .  S
Cr41         O44   1.766       .  S
Cr42         O44   1.773       .  S
Cr43         O44   1.764       .  S
O45         Cr63   1.964       .  S
O45          C53   1.254       .  A
O46         Cr63   2.032       .  S
O46          C47   1.274       .  A
C47          O48   1.254       .  A
C47         C341   1.486       .  S
O48         Cr64   1.944       .  S
O49         Cr64   2.022       .  S
O49          C50   1.272       .  A
C50          O51   1.260       .  A
C50         C485   1.478   1_455  S
O51         Cr65   1.965       .  S
O52         Cr65   2.035       .  S
O52          C53   1.268       .  A
C53         C373   1.484       .  S
O54         Cr63   2.032       .  S
O54          C62   1.273       .  A
O55         Cr63   1.949       .  S
O55          C56   1.250       .  A
C56          O57   1.268       .  A
C56         C357   1.481       .  S
O57         Cr64   2.030       .  S
O58         Cr64   1.969       .  S
O58          C59   1.256       .  A
C59          O60   1.270       .  A
C59         C421   1.487       .  S
O60         Cr65   2.025       .  S
O61         Cr65   1.942       .  S
O61          C62   1.255       .  A
C62         C386   1.463       .  S
Cr63         O66   1.769       .  S
Cr64         O66   1.772       .  S
Cr65         O66   1.770       .  S
O67         Cr85   1.952       .  S
O67         C635   1.250       .  A
O68         Cr85   2.042       .  S
O68          C69   1.275       .  A
C69          O70   1.255       .  A
C69         C325   1.496       .  S
O70         Cr86   1.941       .  S
O71         Cr86   2.035       .  S
O71          C72   1.274       .  A
C72          O73   1.263       .  A
C72         C402   1.494       .  S
O73         Cr87   1.975       .  S
O74         Cr87   2.025       .  S
O74         C635   1.266       .  A
C75         O627   1.250       .  A
C75         O634   1.267       .  A
C75         C354   1.481       .  S
O76         Cr85   2.038       .  S
O76          C84   1.276       .  A
O77         Cr85   1.946       .  S
O77          C78   1.248       .  A
C78          O79   1.271       .  A
C78         C370   1.492       .  S
O79         Cr86   2.049       .  S
O80         Cr86   1.966       .  S
O80          C81   1.258       .  A
C81          O82   1.266       .  A
C81         C469   1.472       .  S
O82         Cr87   2.008       .  S
O83         Cr87   1.955       .  S
O83          C84   1.258       .  A
C84         C309   1.491       .  S
Cr85         O88   1.765       .  S
Cr86         O88   1.769       .  S
Cr87         O88   1.775       .  S
O89        Cr107   1.995       .  S
O89          C97   1.266       .  A
O90        Cr107   1.990       .  S
O90          C91   1.255       .  A
C91          O92   1.265       .  A
C91         C290   1.501       .  S
O92        Cr108   2.013       .  S
O93        Cr108   1.974       .  S
O93          C94   1.261       .  A
C94          O95   1.266       .  A
C94         C338   1.488       .  S
O95        Cr109   2.000       .  S
O96        Cr109   1.983       .  S
O96          C97   1.262       .  A
C97         C261   1.488       .  S
O98        Cr107   1.996       .  S
O98         C106   1.259       .  A
O99        Cr107   1.988       .  S
O99         C100   1.267       .  A
C100        O101   1.265       .  A
C100        C242   1.475       .  S
O101       Cr108   1.989       .  S
O102       Cr108   2.011       .  S
O102        C103   1.268       .  A
C103        O104   1.259       .  A
C103        C306   1.490       .  S
O104       Cr109   1.979       .  S
O105       Cr109   2.005       .  S
O105        C106   1.267       .  A
C106        C274   1.493       .  S
Cr107       O110   1.774       .  S
Cr108       O110   1.769       .  S
Cr109       O110   1.769       .  S
O111       Cr129   2.042       .  S
O111        C119   1.275       .  A
O112       Cr129   1.950       .  S
O112        C113   1.250       .  A
C113        O114   1.272       .  A
C113        C293   1.491       .  S
O114       Cr130   2.051       .  S
O115       Cr130   1.957       .  S
O115        C116   1.257       .  A
C116        O117   1.274       .  A
C116        C389   1.479       .  S
O117       Cr131   2.031       .  S
O118       Cr131   1.943       .  S
O118        C119   1.252       .  A
C119        C229   1.489       .  S
O120       Cr129   1.940       .  S
O120        C688   1.251       .  A
O121       Cr129   2.047       .  S
O121        C122   1.275       .  A
C122        O123   1.253       .  A
C122        C210   1.474       .  S
O123       Cr130   1.936       .  S
O124       Cr130   2.036       .  S
O124        C125   1.273       .  A
C125        O126   1.257       .  A
C125        C322   1.475       .  S
O126       Cr131   1.961       .  S
O127       Cr131   2.050       .  S
O127        C688   1.274       .  A
C128        O680   1.249   1_554  A
C128        O687   1.275   1_554  A
C128        C277   1.502       .  S
Cr129       O132   1.763       .  S
Cr130       O132   1.765       .  S
Cr131       O132   1.769       .  S
O133       Cr151   1.994       .  S
O133        C141   1.259       .  A
O134       Cr151   2.003       .  S
O134        C135   1.269       .  A
C135        O136   1.261       .  A
C135        C533   1.471       .  S
O136       Cr152   1.984       .  S
O137       Cr152   1.994       .  S
O137        C138   1.265       .  A
C138        O139   1.257       .  A
C138        C258   1.471   1_655  S
O139       Cr153   1.968       .  S
O140       Cr153   2.013       .  S
O140        C141   1.267       .  A
C141        C194   1.494       .  S
O142       Cr151   2.004       .  S
O142        C150   1.269       .  A
O143       Cr151   1.994       .  S
O143        C144   1.257       .  A
C144        O145   1.263       .  A
C144        C178   1.491       .  S
O145       Cr152   1.993       .  S
O146       Cr152   1.968       .  S
O146        C147   1.259       .  A
C147        O148   1.270       .  A
C147        C226   1.489       .  S
O148       Cr153   2.010       .  S
O149       Cr153   1.984       .  S
O149        C150   1.262       .  A
C150        C437   1.483       .  S
Cr151       O154   1.771       .  S
Cr152       O154   1.770       .  S
Cr153       O154   1.770       .  S
O155       Cr173   1.947       .  S
O155        C723   1.249   1_554  A
O156       Cr173   2.038       .  S
O156        C157   1.274       .  A
C157        O158   1.254       .  A
C157        C450   1.485       .  S
O158       Cr174   1.939       .  S
O159       Cr174   2.030       .  S
O159        C160   1.273       .  A
C160        O161   1.258       .  A
C160        C213   1.488       .  S
O161       Cr175   1.965       .  S
O162       Cr175   2.034       .  S
O162        C723   1.268   1_554  A
C163        O715   1.246       .  A
C163        O722   1.270       .  A
C163        C181   1.482       .  S
O164       Cr173   2.036       .  S
O164        C172   1.275       .  A
O165       Cr173   1.951       .  S
O165        C166   1.252       .  A
C166        O167   1.273       .  A
C166        C197   1.502       .  S
O167       Cr174   2.051       .  S
O168       Cr174   1.962       .  S
O168        C169   1.260       .  A
C169        O170   1.269       .  A
C169        C245   1.465       .  S
O170       Cr175   2.018       .  S
O171       Cr175   1.946       .  S
O171        C172   1.255       .  A
C172        C549   1.494       .  S
Cr173       O176   1.761       .  S
Cr174       O176   1.767       .  S
Cr175       O176   1.769       .  S
C177        C178   1.401       .  A
C177        C182   1.401       .  A
C177        H184   1.082       .  S
C178        C179   1.426       .  A
C179        C180   1.407       .  A
C179        C186   1.506       .  S
C180        C181   1.398       .  A
C180        H185   1.083       .  S
C181        C182   1.421       .  A
C182        C183   1.511       .  S
C183        H187   1.111       .  S
C183        H188   1.111       .  S
C183        H189   1.109       .  S
C186        H190   1.107       .  S
C186        H191   1.109       .  S
C186        H192   1.111       .  S
C193        C194   1.411       .  A
C193        C198   1.412       .  A
C193        H200   1.084       .  S
C194        C195   1.411       .  A
C195        C196   1.407       .  A
C195        C202   1.507       .  S
C196        C197   1.414       .  A
C196        H201   1.084       .  S
C197        C198   1.415       .  A
C198        C199   1.506       .  S
C199        H203   1.111       .  S
C199        H204   1.110       .  S
C199        H205   1.110       .  S
C202        H206   1.110       .  S
C202        H207   1.110       .  S
C202        H208   1.111       .  S
C209        C210   1.400       .  A
C209        C214   1.399       .  A
C209        H216   1.085       .  S
C210        C211   1.407       .  A
C211        C212   1.410       .  A
C211        C218   1.506       .  S
C212        C773   1.414       .  A
C212        H217   1.083       .  S
C213        C772   1.407       .  A
C213        C774   1.422   1_554  A
C214        C773   1.424       .  A
C214        C775   1.511       .  S
C215        C774   1.508       .  S
C215        H220   1.109       .  S
C215        H779   1.111       .  S
C215        H781   1.111       .  S
C218        H222   1.111       .  S
C218        H223   1.110       .  S
C218        H224   1.111       .  S
H219        C775   1.111       .  S
H221        C775   1.109       .  S
C225        C226   1.412   1_455  A
C225        C230   1.405       .  A
C225        H232   1.084   1_455  S
C226        C227   1.411   1_655  A
C227        C228   1.406       .  A
C227        C234   1.507       .  S
C228        C229   1.412       .  A
C228        H233   1.084       .  S
C229        C230   1.410       .  A
C230        C231   1.507       .  S
C231        H235   1.111       .  S
C231        H236   1.110       .  S
C231        H237   1.110       .  S
C234        H238   1.110   1_455  S
C234        H239   1.110   1_455  S
C234        H240   1.111       .  S
C241        C242   1.407       .  A
C241        C246   1.399       .  A
C241        H248   1.085       .  S
C242        C243   1.411       .  A
C243        C244   1.403       .  A
C243        C250   1.506       .  S
C244        C245   1.404       .  A
C244        H249   1.086       .  S
C245        C246   1.405       .  A
C246        C247   1.507       .  S
C247        H251   1.111       .  S
C247        H252   1.110       .  S
C247        H253   1.110       .  S
C250        H254   1.111       .  S
C250        H255   1.110       .  S
C250        H256   1.111       .  S
C257        C258   1.407       .  A
C257        C262   1.401       .  A
C257        H264   1.085       .  S
C258        C259   1.404       .  A
C259        C260   1.401       .  A
C259        C266   1.507   1_455  S
C260        C261   1.416       .  A
C260        H265   1.083       .  S
C261        C262   1.415       .  A
C262        C263   1.509       .  S
C263        H267   1.111       .  S
C263        H268   1.110       .  S
C263        H269   1.110       .  S
C266        H270   1.110       .  S
C266        H271   1.110       .  S
C266        H272   1.111       .  S
C273        C274   1.414       .  A
C273        C278   1.413       .  A
C273        H280   1.083       .  S
C274        C275   1.410       .  A
C275        C276   1.403       .  A
C275        C282   1.509       .  S
C276        C277   1.415       .  A
C276        H281   1.083       .  S
C277        C278   1.413       .  A
C278        C279   1.505       .  S
C279        H283   1.111       .  S
C279        H284   1.110       .  S
C279        H285   1.110       .  S
C282        H286   1.110       .  S
C282        H287   1.111       .  S
C282        H288   1.111       .  S
C289        C290   1.403       .  A
C289        C294   1.406       .  A
C289        H296   1.085       .  S
C290        C291   1.429       .  A
C291        C292   1.411       .  A
C291        C298   1.509       .  S
C292        C293   1.399       .  A
C292        H297   1.086       .  S
C293        C294   1.421       .  A
C294        C295   1.510       .  S
C295        H299   1.111       .  S
C295        H300   1.109       .  S
C295        H301   1.110       .  S
C298        H302   1.109       .  S
C298        H303   1.110       .  S
C298        H304   1.111       .  S
C305        C306   1.410   1_565  A
C305        C310   1.406       .  A
C305        H312   1.085       .  S
C306        C307   1.411       .  A
C307        C308   1.408   1_545  A
C307        C314   1.504       .  S
C308        C309   1.411       .  A
C308        H313   1.084       .  S
C309        C310   1.414       .  A
C310        C311   1.507       .  S
C311        H315   1.111       .  S
C311        H316   1.109       .  S
C311        H317   1.109       .  S
C314        H318   1.108       .  S
C314        H319   1.110       .  S
C314        H320   1.111       .  S
C321        C326   1.410       .  A
C321        C882   1.409       .  A
C321        H328   1.082       .  S
C322        C323   1.402       .  A
C322        C881   1.407       .  A
C323        C324   1.402       .  A
C323        C330   1.507       .  S
C324        C885   1.417       .  A
C324        H329   1.080       .  S
C325        C326   1.415       .  A
C325        C884   1.414       .  A
C326        C327   1.506       .  S
C327        H331   1.111       .  S
C327        H332   1.110       .  S
C327        H333   1.110       .  S
C330        H334   1.110       .  S
C330        H335   1.110       .  S
C330        H336   1.111       .  S
C337        C338   1.411       .  A
C337        C342   1.403   1_545  A
C337        H344   1.083       .  S
C338        C339   1.413   1_545  A
C339        C340   1.404       .  A
C339        C346   1.508   1_565  S
C340        C341   1.411       .  A
C340        H345   1.083       .  S
C341        C342   1.411       .  A
C342        C343   1.508       .  S
C343        H347   1.111       .  S
C343        H348   1.109       .  S
C343        H349   1.111       .  S
C346        H350   1.110       .  S
C346        H351   1.111       .  S
C346        H352   1.111   1_545  S
C353        C354   1.399       .  A
C353        C358   1.405       .  A
C353        H360   1.084       .  S
C354        C355   1.419       .  A
C355        C356   1.406       .  A
C355        C922   1.508       .  S
C356        C357   1.400       .  A
C356        H361   1.084       .  S
C357        C358   1.420       .  A
C358        C359   1.509       .  S
C359        H363   1.111       .  S
C359        H364   1.110       .  S
C359        H365   1.109       .  S
C362        C915   1.509       .  S
C362        H366   1.110   1_556  S
C362        H367   1.109   1_556  S
C362        H368   1.111       .  S
C369        C370   1.403       .  A
C369        C374   1.412       .  A
C369        H376   1.084       .  S
C370        C371   1.424       .  A
C371        C372   1.407       .  A
C371        C378   1.510       .  S
C372        C373   1.397       .  A
C372        H377   1.085       .  S
C373        C374   1.418       .  A
C374        C375   1.507       .  S
C375        H379   1.111       .  S
C375        H380   1.111       .  S
C375        H381   1.109       .  S
C378        H382   1.110       .  S
C378        H383   1.109       .  S
C378        H384   1.111       .  S
C385        C386   1.400       .  A
C385        C390   1.404       .  A
C385        H392   1.085       .  S
C386        C387   1.409       .  A
C387        C388   1.400       .  A
C387        C394   1.508       .  S
C388        C389   1.406       .  A
C388        H393   1.085       .  S
C389        C390   1.418       .  A
C390        C391   1.508       .  S
C391        H395   1.111       .  S
C391        H396   1.111       .  S
C391        H397   1.109       .  S
C394        H398   1.111       .  S
C394        H399   1.110       .  S
C394        H400   1.111       .  S
C401        C402   1.413   1_556  A
C401        C966   1.413       .  A
C401        H408   1.083       .  S
C402        C963   1.415       .  A
C403        C404   1.400       .  A
C403        C962   1.411       .  A
C403        C410   1.510       .  S
C404        C405   1.411       .  A
C404        H409   1.080       .  S
C405        C406   1.414       .  A
C406        C961   1.408       .  A
C406        C967   1.506       .  S
C407        C966   1.505       .  S
C407        H411   1.111       .  S
C407        H412   1.111       .  S
C407        H973   1.109       .  S
C410        H414   1.111       .  S
C410        H415   1.109       .  S
C410        H416   1.111       .  S
H413        C967   1.110       .  S
C417        C418   1.402       .  A
C417        C422   1.409       .  A
C417        H424   1.086       .  S
C418        C419   1.409       .  A
C419        C420   1.399       .  A
C419        C426   1.509       .  S
C420        C421   1.406   1_655  A
C420        H425   1.086       .  S
C421        C422   1.420   1_455  A
C422        C423   1.508   1_655  S
C423        H427   1.111       .  S
C423        H428   1.109       .  S
C423        H429   1.111       .  S
C426        H430   1.109       .  S
C426        H431   1.110       .  S
C426        H432   1.111       .  S
C433        C434   1.408       .  A
C433        C438   1.406       .  A
C433        H440   1.085       .  S
C434        C435   1.411       .  A
C435        C436   1.401       .  A
C435        C442   1.507       .  S
C436        C437   1.408       .  A
C436        H441   1.085       .  S
C437        C438   1.414       .  A
C438        C439   1.508       .  S
C439        H443   1.111       .  S
C439        H444   1.111       .  S
C439        H445   1.110       .  S
C442        H446   1.110       .  S
C442        H447   1.105       .  S
C442        H448   1.111       .  S
C449        C454   1.400       .  A
C449       C1010   1.409       .  A
C449        H456   1.082       .  S
C450        C451   1.411       .  A
C450       C1009   1.409       .  A
C451        C452   1.407       .  A
C451        C458   1.506       .  S
C452       C1013   1.411   1_554  A
C452        H457   1.085       .  S
C453        C454   1.413       .  A
C453       C1012   1.410       .  A
C454        C455   1.509       .  S
C455        H459   1.111       .  S
C455        H460   1.109       .  S
C455        H461   1.109       .  S
C458        H462   1.110       .  S
C458        H463   1.110       .  S
C458        H464   1.111       .  S
C465        C466   1.407       .  A
C465        C470   1.401       .  A
C465        H472   1.083       .  S
C466        C467   1.412       .  A
C467        C468   1.400       .  A
C467        C474   1.509       .  S
C468        C469   1.406       .  A
C468        H473   1.083       .  S
C469        C470   1.411       .  A
C470        C471   1.508       .  S
C471        H475   1.111       .  S
C471        H476   1.110       .  S
C471        H477   1.111       .  S
C474        H478   1.110       .  S
C474        H479   1.110       .  S
C474        H480   1.111       .  S
C481        C482   1.406       .  A
C481        C486   1.403       .  A
C481        H488   1.083       .  S
C482        C483   1.414       .  A
C483        C484   1.400       .  A
C483        C490   1.508       .  S
C484        C485   1.405       .  A
C484        H489   1.083       .  S
C485        C486   1.414       .  A
C486        C487   1.508   1_655  S
C487        H491   1.111       .  S
C487        H492   1.110       .  S
C487        H493   1.110       .  S
C490        H494   1.110       .  S
C490        H495   1.108       .  S
C490        H496   1.111       .  S
C497        C498   1.413       .  A
C497        C502   1.408       .  A
C497        H504   1.083       .  S
C498        C499   1.417       .  A
C499        C500   1.404       .  A
C499        C506   1.509       .  S
C500        C501   1.407       .  A
C500        H505   1.084       .  S
C501        C502   1.410       .  A
C502        C503   1.507       .  S
C503        H507   1.111       .  S
C503        H508   1.110       .  S
C503        H509   1.111       .  S
C506        H510   1.110       .  S
C506        H511   1.110       .  S
C506        H512   1.111       .  S
C513        C514   1.412       .  A
C513        C518   1.408       .  A
C513        H520   1.084       .  S
C514        C515   1.411       .  A
C515        C516   1.404       .  A
C515        C522   1.505       .  S
C516        C517   1.411       .  A
C516        H521   1.084       .  S
C517        C518   1.415       .  A
C518        C519   1.508       .  S
C519        H523   1.111       .  S
C519        H524   1.110       .  S
C519        H525   1.108       .  S
C522        H526   1.106       .  S
C522        H527   1.110       .  S
C522        H528   1.111       .  S
C529        C530   1.402       .  A
C529        C534   1.400       .  A
C529        H536   1.085   1_545  S
C530        C531   1.417       .  A
C531        C532   1.405       .  A
C531        C538   1.506       .  S
C532        C533   1.401       .  A
C532        H537   1.084       .  S
C533        C534   1.412       .  A
C534        C535   1.506       .  S
C535        H539   1.111       .  S
C535        H540   1.109       .  S
C535        H541   1.109       .  S
C538        H542   1.110       .  S
C538        H543   1.106       .  S
C538        H544   1.110       .  S
C545        C546   1.412       .  A
C545        C550   1.402       .  A
C545        H552   1.083       .  S
C546        C547   1.413       .  A
C547        C548   1.406       .  A
C547        C554   1.508   1_545  S
C548        C549   1.415       .  A
C548        H553   1.084       .  S
C549        C550   1.413       .  A
C550        C551   1.509       .  S
C551        H555   1.111       .  S
C551        H556   1.110       .  S
C551        H557   1.110       .  S
C554        H558   1.110       .  S
C554        H559   1.111       .  S
C554        H560   1.111       .  S
O561       Cr579   1.989       .  S
O561        C569   1.266       .  A
O562       Cr579   1.990       .  S
O562        C563   1.258       .  A
C563        O564   1.260       .  A
C563       C1058   1.492       .  S
O564       Cr580   1.992       .  S
O565       Cr580   1.967       .  S
O565        C566   1.259       .  A
C566        O567   1.269       .  A
C566       C1106   1.494   1_565  S
O567       Cr581   2.008       .  S
O568       Cr581   1.997       .  S
O568        C569   1.266       .  A
C569       C1026   1.479       .  S
O570       Cr579   1.988       .  S
O570        C578   1.258       .  A
O571       Cr579   1.983       .  S
O571        C572   1.265       .  A
C572        O573   1.264       .  A
C572       C1042   1.472       .  S
O573       Cr580   1.993       .  S
O574       Cr580   1.996       .  S
O574        C575   1.266       .  A
C575        O576   1.259       .  A
C575       C1090   1.471   1_565  S
O576       Cr581   1.975       .  S
O577       Cr581   2.017       .  S
O577        C578   1.266       .  A
C578       C1077   1.503       .  S
Cr579       O582   1.772       .  S
Cr580       O582   1.773       .  S
Cr581       O582   1.768       .  S
O583       Cr601   2.053       .  S
O583        C591   1.278       .  A
O584       Cr601   1.951       .  S
C585       C1061   1.479       .  S
O586       Cr602   2.034       .  S
O587       Cr602   1.965       .  S
O587        C588   1.260       .  A
C588        O589   1.271       .  A
C588       C1013   1.484       .  S
O589       Cr603   2.027       .  S
O590       Cr603   1.937       .  S
O590        C591   1.254       .  A
C591        C965   1.493       .  S
O592       Cr601   1.960       .  S
O592        C600   1.252       .  A
O593       Cr601   2.050       .  S
O593        C594   1.278       .  A
C594        O595   1.256       .  A
C594        C978   1.496       .  S
O595       Cr602   1.940       .  S
O596       Cr602   2.028       .  S
O596        C597   1.270       .  A
C597        O598   1.259       .  A
C597        C994   1.478       .  S
O598       Cr603   1.968       .  S
O599       Cr603   2.039       .  S
O599        C600   1.270       .  A
C600       C1074   1.496       .  S
Cr601       O604   1.766       .  S
Cr602       O604   1.772       .  S
Cr603       O604   1.766       .  S
O605       Cr623   1.957       .  S
O605        C613   1.251       .  A
O606       Cr623   2.030       .  S
O606        C607   1.273       .  A
C607        O608   1.255       .  A
C607        C901   1.484       .  S
O608       Cr624   1.944       .  S
O609       Cr624   2.013       .  S
O609        C610   1.268       .  A
C610        O611   1.258       .  A
C610       C1045   1.479       .  S
O611       Cr625   1.966       .  S
O612       Cr625   2.038       .  S
O612        C613   1.268       .  A
C613        C933   1.488       .  S
O614       Cr623   2.034       .  S
O614        C622   1.274       .  A
O615       Cr623   1.948       .  S
O615        C616   1.250       .  A
C616        O617   1.265       .  A
C616        C917   1.474       .  S
O617       Cr624   2.024       .  S
O618       Cr624   1.969       .  S
O618        C619   1.260       .  A
C619        O620   1.272       .  A
C619        C981   1.486       .  S
O620       Cr625   2.028       .  S
O621       Cr625   1.942       .  S
O621        C622   1.255       .  A
C622        C946   1.472       .  S
Cr623       O626   1.768       .  S
Cr624       O626   1.775       .  S
Cr625       O626   1.769       .  S
O627       Cr645   1.953       .  S
O628       Cr645   2.046       .  S
O628        C629   1.276       .  A
C629        O630   1.255       .  A
C629        C885   1.499       .  S
O630       Cr646   1.942       .  S
O631       Cr646   2.024       .  S
O631        C632   1.272       .  A
C632        O633   1.261       .  A
C632        C962   1.481       .  S
O633       Cr647   1.968       .  S
O634       Cr647   2.032       .  S
C635        C914   1.477   1_554  S
O636       Cr645   2.046       .  S
O636        C644   1.278       .  A
O637       Cr645   1.953       .  S
O637        C638   1.251       .  A
C638        O639   1.269       .  A
C638        C930   1.483       .  S
O639       Cr646   2.038       .  S
O640       Cr646   1.971       .  S
O640        C641   1.259       .  A
C641        O642   1.268       .  A
C641       C1029   1.481       .  S
O642       Cr647   2.018       .  S
O643       Cr647   1.950       .  S
O643        C644   1.256       .  A
C644        C869   1.487       .  S
Cr645       O648   1.768       .  S
Cr646       O648   1.767       .  S
Cr647       O648   1.773       .  S
O649       Cr667   1.991       .  S
O649        C657   1.267       .  A
O650       Cr667   1.988       .  S
O650        C651   1.254       .  A
C651        O652   1.265       .  A
C651        C850   1.499       .  S
O652       Cr668   2.013       .  S
O653       Cr668   1.968       .  S
O653        C654   1.258       .  A
C654        O655   1.265       .  A
C654        C898   1.486       .  S
O655       Cr669   1.997       .  S
O656       Cr669   1.991       .  S
O656        C657   1.265       .  A
C657        C821   1.491       .  S
O658       Cr667   1.992       .  S
O658        C666   1.258       .  A
O659       Cr667   1.992       .  S
O659        C660   1.268       .  A
C660        O661   1.265       .  A
C660        C802   1.477       .  S
O661       Cr668   1.990       .  S
O662       Cr668   2.006       .  S
O662        C663   1.269       .  A
C663        O664   1.260       .  A
C663        C866   1.490       .  S
O664       Cr669   1.977       .  S
O665       Cr669   2.004       .  S
O665        C666   1.263       .  A
C666        C834   1.499       .  S
Cr667       O670   1.772       .  S
Cr668       O670   1.771       .  S
Cr669       O670   1.770       .  S
O671       Cr689   2.038       .  S
O671        C679   1.274       .  A
O672       Cr689   1.951       .  S
O672        C673   1.250       .  A
C673        O674   1.271       .  A
C673        C853   1.488       .  S
O674       Cr690   2.045       .  S
O675       Cr690   1.959       .  S
O675        C676   1.258       .  A
C676        O677   1.275       .  A
C676        C949   1.472       .  S
O677       Cr691   2.040       .  S
O678       Cr691   1.948       .  S
O678        C679   1.253       .  A
C679        C789   1.487       .  S
O680       Cr689   1.935       .  S
O681       Cr689   2.041       .  S
O681        C682   1.275       .  A
C682        O683   1.253       .  A
C682        C770   1.468       .  S
O683       Cr690   1.941       .  S
O684       Cr690   2.029       .  S
O684        C685   1.271       .  A
C685        O686   1.258       .  A
C685        C882   1.482   1_556  S
O686       Cr691   1.965       .  S
O687       Cr691   2.058       .  S
C688        C837   1.491       .  S
Cr689       O692   1.760       .  S
Cr690       O692   1.765       .  S
Cr691       O692   1.768       .  S
O693       Cr711   1.988       .  S
O693        C701   1.256       .  A
O694       Cr711   2.003       .  S
O694        C695   1.270       .  A
C695        O696   1.262       .  A
C695       C1093   1.473       .  S
O696       Cr712   1.987       .  S
O697       Cr712   2.001       .  S
O697        C698   1.266       .  A
C698        O699   1.259       .  A
C698        C818   1.476   1_655  S
O699       Cr713   1.967       .  S
O700       Cr713   2.011       .  S
O700        C701   1.265       .  A
C701        C754   1.490       .  S
O702       Cr711   2.001       .  S
O702        C710   1.269       .  A
O703       Cr711   1.987       .  S
O703        C704   1.255       .  A
C704        O705   1.264       .  A
C704        C738   1.496       .  S
O705       Cr712   2.002       .  S
O706       Cr712   1.969       .  S
O706        C707   1.258       .  A
C707        O708   1.269       .  A
C707        C786   1.488       .  S
O708       Cr713   2.006       .  S
O709       Cr713   1.989       .  S
O709        C710   1.265       .  A
C710        C997   1.488       .  S
Cr711       O714   1.771       .  S
Cr712       O714   1.770       .  S
Cr713       O714   1.768       .  S
O715       Cr733   1.940       .  S
O716       Cr733   2.034       .  S
O716        C717   1.273       .  A
C717        O718   1.255       .  A
C717       C1010   1.486       .  S
O718       Cr734   1.944       .  S
O719       Cr734   2.018       .  S
O719        C720   1.270       .  A
C720        O721   1.264       .  A
C720        C773   1.496       .  S
O721       Cr735   1.976       .  S
O722       Cr735   2.042       .  S
C723        C741   1.477       .  S
O724       Cr733   2.036       .  S
O724        C732   1.274       .  A
O725       Cr733   1.951       .  S
O725        C726   1.252       .  A
C726        O727   1.271       .  A
C726        C757   1.499       .  S
O727       Cr734   2.043       .  S
O728       Cr734   1.968       .  S
O728        C729   1.261       .  A
C729        O730   1.270       .  A
C729        C805   1.479       .  S
O730       Cr735   2.017       .  S
O731       Cr735   1.946       .  S
O731        C732   1.255       .  A
C732       C1109   1.493       .  S
Cr733       O736   1.759       .  S
Cr734       O736   1.761       .  S
Cr735       O736   1.772       .  S
C737        C738   1.404       .  A
C737        C742   1.402       .  A
C737        H744   1.083       .  S
C738        C739   1.430       .  A
C739        C740   1.407       .  A
C739        C746   1.509       .  S
C740        C741   1.396       .  A
C740        H745   1.084       .  S
C741        C742   1.416       .  A
C742        C743   1.510       .  S
C743        H747   1.111       .  S
C743        H748   1.110   1_556  S
C743        H749   1.109   1_556  S
C746        H750   1.110       .  S
C746        H751   1.110       .  S
C746        H752   1.111       .  S
C753        C754   1.410       .  A
C753        C758   1.409       .  A
C753        H760   1.084       .  S
C754        C755   1.411       .  A
C755        C756   1.406       .  A
C755        C762   1.508       .  S
C756        C757   1.414       .  A
C756        H761   1.083       .  S
C757        C758   1.415       .  A
C758        C759   1.507       .  S
C759        H763   1.111       .  S
C759        H764   1.110       .  S
C759        H765   1.110       .  S
C762        H766   1.108       .  S
C762        H767   1.110       .  S
C762        H768   1.111       .  S
C769        C770   1.400       .  A
C769        C774   1.408       .  A
C769        H776   1.082       .  S
C770        C771   1.410   1_556  A
C771        C772   1.401       .  A
C771        C778   1.509       .  S
C772        H777   1.081       .  S
C775        H780   1.110       .  S
C778        H782   1.110       .  S
C778        H783   1.110       .  S
C778        H784   1.111       .  S
C785        C786   1.412   1_455  A
C785        C790   1.405       .  A
C785        H792   1.084   1_455  S
C786        C787   1.412   1_655  A
C787        C788   1.405       .  A
C787        C794   1.507       .  S
C788        C789   1.410       .  A
C788        H793   1.082       .  S
C789        C790   1.410       .  A
C790        C791   1.507       .  S
C791        H795   1.111       .  S
C791        H796   1.111       .  S
C791        H797   1.110       .  S
C794        H798   1.110   1_455  S
C794        H799   1.111       .  S
C794        H800   1.111       .  S
C801        C802   1.407       .  A
C801        C806   1.402       .  A
C801        H808   1.083       .  S
C802        C803   1.411       .  A
C803        C804   1.402       .  A
C803        C810   1.508       .  S
C804        C805   1.408       .  A
C804        H809   1.083       .  S
C805        C806   1.412       .  A
C806        C807   1.508       .  S
C807        H811   1.111       .  S
C807        H812   1.109       .  S
C807        H813   1.111       .  S
C810        H814   1.110       .  S
C810        H815   1.110       .  S
C810        H816   1.111       .  S
C817        C818   1.407       .  A
C817        C822   1.401       .  A
C817        H824   1.083       .  S
C818        C819   1.406       .  A
C819        C820   1.405       .  A
C819        C826   1.507   1_455  S
C820        C821   1.416       .  A
C820        H825   1.082       .  S
C821        C822   1.415       .  A
C822        C823   1.509       .  S
C823        H827   1.111       .  S
C823        H828   1.110       .  S
C823        H829   1.110       .  S
C826        H830   1.110       .  S
C826        H831   1.110       .  S
C826        H832   1.111       .  S
C833        C834   1.416       .  A
C833        C838   1.410       .  A
C833        H840   1.083       .  S
C834        C835   1.416       .  A
C835        C836   1.405       .  A
C835        C842   1.509       .  S
C836        C837   1.410       .  A
C836        H841   1.084       .  S
C837        C838   1.409       .  A
C838        C839   1.506       .  S
C839        H843   1.111       .  S
C839        H844   1.110       .  S
C839        H845   1.111       .  S
C842        H846   1.110       .  S
C842        H847   1.110       .  S
C842        H848   1.111       .  S
C849        C850   1.403       .  A
C849        C854   1.406       .  A
C849        H856   1.085       .  S
C850        C851   1.428       .  A
C851        C852   1.409       .  A
C851        C858   1.509       .  S
C852        C853   1.398       .  A
C852        H857   1.085       .  S
C853        C854   1.420       .  A
C854        C855   1.509       .  S
C855        H859   1.111       .  S
C855        H860   1.109       .  S
C855        H861   1.110       .  S
C858        H862   1.109       .  S
C858        H863   1.110       .  S
C858        H864   1.111       .  S
C865        C866   1.411   1_565  A
C865        C870   1.407       .  A
C865        H872   1.085   1_565  S
C866        C867   1.414   1_545  A
C867        C868   1.407       .  A
C867        C874   1.507       .  S
C868        C869   1.409       .  A
C868        H873   1.085       .  S
C869        C870   1.411       .  A
C870        C871   1.506       .  S
C871        H875   1.111       .  S
C871        H876   1.110       .  S
C871        H877   1.111       .  S
C874        H878   1.111       .  S
C874        H879   1.110   1_565  S
C874        H880   1.111       .  S
C881        C886   1.411       .  A
C881        H888   1.081       .  S
C882        C883   1.408       .  A
C883        C884   1.401       .  A
C883        C890   1.509   1_554  S
C884        H889   1.079       .  S
C885        C886   1.417       .  A
C886        C887   1.506       .  S
C887        H891   1.111       .  S
C887        H892   1.111       .  S
C887        H893   1.110       .  S
C890        H894   1.109       .  S
C890        H895   1.111       .  S
C890        H896   1.111       .  S
C897        C898   1.411   1_565  A
C897        C902   1.402       .  A
C897        H904   1.084   1_565  S
C898        C899   1.413   1_545  A
C899        C900   1.403       .  A
C899        C906   1.508   1_565  S
C900        C901   1.410       .  A
C900        H905   1.085       .  S
C901        C902   1.410       .  A
C902        C903   1.507       .  S
C903        H907   1.111       .  S
C903        H908   1.110       .  S
C903        H909   1.110       .  S
C906        H910   1.110       .  S
C906        H911   1.110       .  S
C906        H912   1.111   1_545  S
C913        C914   1.399       .  A
C913        C918   1.404       .  A
C913        H920   1.086       .  S
C914        C915   1.419       .  A
C915        C916   1.403       .  A
C916        C917   1.398       .  A
C916        H921   1.086       .  S
C917        C918   1.417       .  A
C918        C919   1.508       .  S
C919        H923   1.111       .  S
C919        H924   1.109       .  S
C919        H925   1.109       .  S
C922        H926   1.110       .  S
C922        H927   1.109       .  S
C922        H928   1.111       .  S
C929        C930   1.398       .  A
C929        C934   1.408       .  A
C929        H936   1.085       .  S
C930        C931   1.419       .  A
C931        C932   1.409       .  A
C931        C938   1.508       .  S
C932        C933   1.401       .  A
C932        H937   1.084       .  S
C933        C934   1.422       .  A
C934        C935   1.508       .  S
C935        H939   1.111       .  S
C935        H940   1.110       .  S
C935        H941   1.109       .  S
C938        H942   1.111       .  S
C938        H943   1.109       .  S
C938        H944   1.111       .  S
C945        C946   1.405       .  A
C945        C950   1.403       .  A
C945        H952   1.084       .  S
C946        C947   1.411       .  A
C947        C948   1.404       .  A
C947        C954   1.506       .  S
C948        C949   1.404       .  A
C948        H953   1.084       .  S
C949        C950   1.410       .  A
C950        C951   1.507       .  S
C951        H955   1.111       .  S
C951        H956   1.109       .  S
C951        H957   1.110       .  S
C954        H958   1.109       .  S
C954        H959   1.110       .  S
C954        H960   1.111       .  S
C961        C962   1.409       .  A
C961        H968   1.082       .  S
C963        C964   1.402   1_554  A
C963        C970   1.509       .  S
C964        C965   1.410       .  A
C964        H969   1.084       .  S
C965        C966   1.412       .  A
C967        H971   1.111       .  S
C967        H972   1.111       .  S
C970        H974   1.110       .  S
C970        H975   1.109       .  S
C970        H976   1.111       .  S
C977        C978   1.413       .  A
C977        C982   1.401       .  A
C977        H984   1.084       .  S
C978        C979   1.415       .  A
C979        C980   1.410       .  A
C979        C986   1.506       .  S
C980        C981   1.410   1_655  A
C980        H985   1.084   1_655  S
C981        C982   1.411   1_455  A
C982        C983   1.510   1_655  S
C983        H987   1.111   1_455  S
C983        H988   1.111       .  S
C983        H989   1.109       .  S
C986        H990   1.111       .  S
C986        H991   1.109       .  S
C986        H992   1.111       .  S
C993        C994   1.407       .  A
C993        C998   1.407       .  A
C993       H1000   1.086       .  S
C994        C995   1.409       .  A
C995        C996   1.402       .  A
C995       C1002   1.508       .  S
C996        C997   1.410       .  A
C996       H1001   1.085       .  S
C997        C998   1.416       .  A
C998        C999   1.508       .  S
C999       H1003   1.111       .  S
C999       H1004   1.110       .  S
C999       H1005   1.110       .  S
C1002      H1006   1.111       .  S
C1002      H1007   1.108       .  S
C1002      H1008   1.111       .  S
C1009      C1014   1.399   1_554  A
C1009      H1016   1.085   1_554  S
C1010      C1011   1.412       .  A
C1011      C1012   1.407       .  A
C1011      C1018   1.506       .  S
C1012      H1017   1.081       .  S
C1013      C1014   1.413       .  A
C1014      C1015   1.510       .  S
C1015      H1019   1.111       .  S
C1015      H1020   1.109       .  S
C1015      H1021   1.111       .  S
C1018      H1022   1.110       .  S
C1018      H1023   1.111       .  S
C1018      H1024   1.111       .  S
C1025      C1026   1.406       .  A
C1025      C1030   1.403       .  A
C1025      H1032   1.084       .  S
C1026      C1027   1.413       .  A
C1027      C1028   1.404       .  A
C1027      C1034   1.508       .  S
C1028      C1029   1.408       .  A
C1028      H1033   1.085       .  S
C1029      C1030   1.413       .  A
C1030      C1031   1.508       .  S
C1031      H1035   1.111       .  S
C1031      H1036   1.110       .  S
C1031      H1037   1.111       .  S
C1034      H1038   1.110       .  S
C1034      H1039   1.110       .  S
C1034      H1040   1.111       .  S
C1041      C1042   1.403       .  A
C1041      C1046   1.402   1_655  A
C1041      H1048   1.083       .  S
C1042      C1043   1.411       .  A
C1043      C1044   1.401       .  A
C1043      C1050   1.508       .  S
C1044      C1045   1.407   1_655  A
C1044      H1049   1.083       .  S
C1045      C1046   1.416       .  A
C1046      C1047   1.509       .  S
C1047      H1051   1.111       .  S
C1047      H1052   1.109       .  S
C1047      H1053   1.111       .  S
C1050      H1054   1.109       .  S
C1050      H1055   1.111       .  S
C1050      H1056   1.111       .  S
C1057      C1058   1.414       .  A
C1057      C1062   1.406       .  A
C1057      H1064   1.082       .  S
C1058      C1059   1.417       .  A
C1059      C1060   1.402       .  A
C1059      C1066   1.509       .  S
C1060      C1061   1.405       .  A
C1060      H1065   1.084       .  S
C1061      C1062   1.407       .  A
C1062      C1063   1.507       .  S
C1063      H1067   1.111       .  S
C1063      H1068   1.110       .  S
C1063      H1069   1.111       .  S
C1066      H1070   1.110       .  S
C1066      H1071   1.110       .  S
C1066      H1072   1.111       .  S
C1073      C1074   1.413       .  A
C1073      C1078   1.411       .  A
C1073      H1080   1.084       .  S
C1074      C1075   1.415       .  A
C1075      C1076   1.407       .  A
C1075      C1082   1.509       .  S
C1076      C1077   1.413       .  A
C1076      H1081   1.084       .  S
C1077      C1078   1.416       .  A
C1078      C1079   1.507       .  S
C1079      H1083   1.111       .  S
C1079      H1084   1.110       .  S
C1079      H1085   1.109       .  S
C1082      H1086   1.103       .  S
C1082      H1087   1.110       .  S
C1082      H1088   1.111       .  S
C1089      C1090   1.403       .  A
C1089      C1094   1.402       .  A
C1089      H1096   1.081   1_545  S
C1090      C1091   1.417       .  A
C1091      C1092   1.405       .  A
C1091      C1098   1.506       .  S
C1092      C1093   1.402       .  A
C1092      H1097   1.077       .  S
C1093      C1094   1.413       .  A
C1094      C1095   1.508       .  S
C1095      H1099   1.111       .  S
C1095      H1100   1.110       .  S
C1095      H1101   1.109       .  S
C1098      H1102   1.110       .  S
C1098      H1103   1.106       .  S
C1098      H1104   1.110       .  S
C1105      C1106   1.413       .  A
C1105      C1110   1.402       .  A
C1105      H1112   1.083       .  S
C1106      C1107   1.411       .  A
C1107      C1108   1.406       .  A
C1107      C1114   1.508   1_545  S
C1108      C1109   1.415       .  A
C1108      H1113   1.084       .  S
C1109      C1110   1.412       .  A
C1110      C1111   1.509       .  S
C1111      H1115   1.111       .  S
C1111      H1116   1.110       .  S
C1111      H1117   1.110       .  S
C1114      H1118   1.110       .  S
C1114      H1119   1.111       .  S
C1114      H1120   1.111       .  S
