geometry optimzed in LAMMPS
_audit_creation_date              2020-12-01 
_audit_creation_method            'lammps2cif' 
_symmetry_space_group_name_H-M    'P1' 
_symmetry_Int_Tables_number       1 
_symmetry_cell_setting            triclinic 
loop_ 
_symmetry_equiv_pos_as_xyz 
  x,y,z 
_cell_length_a                    50.1627642 
_cell_length_b                    51.11409752682212 
_cell_length_c                    48.91862477002499 
_cell_angle_alpha                 90.00564197764338 
_cell_angle_beta                  89.91047239308438 
_cell_angle_gamma                 89.97111198010535 
loop_ 
_atom_site_label 
_atom_site_type_symbol 
_atom_site_fract_x 
_atom_site_fract_y 
_atom_site_fract_z 
_atom_site_charge 
C1          C  0.54204549  0.56677767  0.24845602     0.02900
C2          C  0.52906017  0.58591650  0.26421612    -0.13200
C3          C  0.53498209  0.58911200  0.29212234     0.00400
C4          C  0.55438602  0.57283773  0.30404625    -0.11800
C5          C  0.56819459  0.55403750  0.28849233     0.02900
C6          C  0.56209945  0.55150723  0.26055568    -0.11200
H7          H  0.51419211  0.59820632  0.25462184     0.08500
H8          H  0.55781267  0.57393436  0.32584462     0.06000
H9          H  0.57220255  0.53686802  0.24836622     0.05900
C10         C  0.38936097  0.41418160  0.73489917     0.02900
C11         C  0.37174342  0.42868592  0.71819825    -0.13200
C12         C  0.37505713  0.42956682  0.68970655     0.00400
C13         C  0.39514877  0.41449652  0.67751955    -0.11800
C14         C  0.41168871  0.39844735  0.69339531     0.02900
C15         C  0.40897247  0.39860535  0.72199828    -0.11200
H16         H  0.35581936  0.44006667  0.72721871     0.08500
H17         H  0.39733510  0.41461722  0.65546860     0.06000
H18         H  0.42290729  0.38724677  0.73397453     0.05900
C19         C  0.71268025  0.54239565  0.94784306     0.02900
C20         C  0.72761521  0.56229742  0.96035817    -0.13200
C21         C  0.75190903  0.57056968  0.94897490     0.00400
C22         C  0.76125687  0.55896454  0.92477965    -0.11800
C23         C  0.74696690  0.53857928  0.91243810     0.02900
C24         C  0.72260507  0.53066210  0.92387109    -0.11200
H25         H  0.72067841  0.57103582  0.97925695     0.08500
H26         H  0.78042728  0.56473506  0.91649456     0.06000
H27         H  0.71130530  0.51537149  0.91385319     0.05900
C28         C  0.40151966  0.71352836  0.94230863     0.02900
C29         C  0.37872155  0.72378757  0.95533922    -0.13200
C30         C  0.36863831  0.74845090  0.94808340     0.00400
C31         C  0.38117170  0.76274248  0.92723367    -0.11800
C32         C  0.40410887  0.75314408  0.91419624     0.02900
C33         C  0.41425788  0.72867545  0.92206393    -0.11200
H34         H  0.36836256  0.71249108  0.97076012     0.08500
H35         H  0.37324657  0.78167187  0.92148944     0.06000
H36         H  0.43256555  0.72177523  0.91281591     0.05900
C37         C  0.19245066  0.39624612  0.04392723     0.02900
C38         C  0.17993464  0.41069652  0.06475019    -0.13200
C39         C  0.15252194  0.40801256  0.06982254     0.00400
C40         C  0.13777606  0.39067780  0.05358819    -0.11800
C41         C  0.15004460  0.37511616  0.03349653     0.02900
C42         C  0.17754893  0.37804641  0.02875267    -0.11200
H43         H  0.19174805  0.42389927  0.07709591     0.08500
H44         H  0.11635806  0.38982291  0.05609737     0.06000
H45         H  0.18730818  0.36656454  0.01304882     0.05900
C46         C  0.50329345  0.22297979  0.02817726     0.02900
C47         C  0.52303144  0.21048041  0.01249933    -0.13200
C48         C  0.52595921  0.18317206  0.01371129     0.00400
C49         C  0.50966496  0.16859087  0.03139921    -0.11800
C50         C  0.49067486  0.18093280  0.04817168     0.02900
C51         C  0.48741781  0.20816669  0.04606859    -0.11200
H52         H  0.53528691  0.22180030  0.99859381     0.08500
H53         H  0.51195080  0.14752339  0.03210447     0.06000
H54         H  0.47288275  0.21811099  0.05875724     0.05900
O55         O  0.44168021  0.47713228  0.93283253    -0.81100
O56         O  0.47940471  0.50113780  0.04829051    -0.65800
O57         O  0.46780182  0.46493208  0.98139942    -1.12400
C58         C  0.38597864  0.44075395  0.01888678     1.05800
O59         O  0.46135886  0.47033322  0.07462820    -0.79000
O60         O  0.45430340  0.42643760  0.04363084    -0.66600
Ni61       Ni  0.47694224  0.48061990  0.94746707     1.34900
C62         C  0.45247512  0.41352428  0.02151952     0.84500
O63         O  0.51065059  0.49221930  0.00502550    -0.79600
O64         O  0.51284629  0.48523889  0.95966164    -0.89800
C65         C  0.47501593  0.49118699  0.07161927     0.84100
O66         O  0.46830400  0.51592104  0.95587747    -0.68000
O67         O  0.40034640  0.43794432  0.04022597    -0.87300
C68         C  0.46135921  0.52773494  0.97751642     0.84900
C69         C  0.52360385  0.49089867  0.98253498     1.06500
H70         H  0.42711034  0.49027751  0.02353376     0.38300
O71         O  0.43798291  0.47468770  0.02247515    -1.10000
O72         O  0.44086472  0.42264549  0.00037137    -0.66600
Ni73       Ni  0.43115324  0.45755803  0.98838369     1.26300
O74         O  0.46197947  0.51713488  0.00099345    -0.66900
O75         O  0.39473160  0.45117596  0.99704817    -0.79100
C76         C  0.42874184  0.45587865  0.93145774     0.84300
O77         O  0.42531289  0.44220907  0.95286209    -0.66300
Ni78       Ni  0.43194304  0.45470753  0.05489497     1.27400
Ni79       Ni  0.47425081  0.48375211  0.01431957     1.26100
H80         H  0.47790490  0.44886323  0.98239610     0.38800
C81         C  0.51053313  0.23787593  0.53912125     0.02900
C82         C  0.52918010  0.24922848  0.52103152    -0.13200
C83         C  0.53772600  0.27516399  0.52461118     0.00400
C84         C  0.52710939  0.29016307  0.54601987    -0.11800
C85         C  0.50899519  0.27926241  0.56474879     0.02900
C86         C  0.50133390  0.25296397  0.56138897    -0.11200
H87         H  0.53661329  0.23835825  0.50363530     0.08500
H88         H  0.53312784  0.31041759  0.54799569     0.06000
H89         H  0.48839328  0.24414231  0.57648345     0.05900
C90         C  0.41256195  0.74938732  0.43348797     0.02900
C91         C  0.42942407  0.73521952  0.41585692    -0.13200
C92         C  0.42660349  0.70805463  0.41303291     0.00400
C93         C  0.40636299  0.69520467  0.42746441    -0.11800
C94         C  0.38901308  0.70904864  0.44464457     0.02900
C95         C  0.39213083  0.73619356  0.44767691    -0.11200
H96         H  0.44544997  0.74516356  0.40521565     0.08500
H97         H  0.40390214  0.67424489  0.42515034     0.06000
H98         H  0.37906613  0.74688818  0.46135577     0.05900
C99         C  0.50690896  0.89858585  0.74290045     0.02900
C100        C  0.49333892  0.87789138  0.75572235    -0.13200
C101        C  0.50139958  0.86902859  0.78160909     0.00400
C102        C  0.52331818  0.88073447  0.79454330    -0.11800
C103        C  0.53656769  0.90211250  0.78259194     0.02900
C104        C  0.52820384  0.91067554  0.75664023    -0.11200
H105        H  0.47623750  0.86903233  0.74588426     0.08500
H106        H  0.52938551  0.87356465  0.81440497     0.06000
H107        H  0.53792554  0.92720990  0.74711988     0.05900
C108        C  0.70895373  0.92456363  0.43911484     0.02900
C109        C  0.72074921  0.90398387  0.45377063    -0.13200
C110        C  0.74592981  0.89444440  0.44630996     0.00400
C111        C  0.75930798  0.90547136  0.42391569    -0.11800
C112        C  0.74846437  0.92687373  0.40969525     0.02900
C113        C  0.72313990  0.93614977  0.41742285    -0.11200
H114        H  0.71025461  0.89507732  0.47075911     0.08500
H115        H  0.77867432  0.89782666  0.41823714     0.06000
H116        H  0.71472571  0.95301278  0.40719543     0.05900
C117        C  0.36841925  0.05944902  0.22658549     0.02900
C118        C  0.38264195  0.07662791  0.20935076    -0.13200
C119        C  0.38115986  0.07418869  0.18079398     0.00400
C120        C  0.36469038  0.05489410  0.16948284    -0.11800
C121        C  0.34982857  0.03815596  0.18623014     0.02900
C122        C  0.35141955  0.04066372  0.21476080    -0.11200
H123        H  0.39594473  0.09103021  0.21815272     0.08500
H124        H  0.36360663  0.05264729  0.14747179     0.06000
H125        H  0.34094915  0.02677696  0.22760825     0.05900
C126        C  0.17914464  0.04075796  0.51844451     0.02900
C127        C  0.16988207  0.02757255  0.54181150    -0.13200
C128        C  0.14317732  0.02940457  0.55016514     0.00400
C129        C  0.12586956  0.04552734  0.53516118    -0.11800
C130        C  0.13512123  0.06024898  0.51283358     0.02900
C131        C  0.16166833  0.05730387  0.50419318    -0.11200
H132        H  0.18381897  0.01636207  0.55394542     0.08500
H133        H  0.10501078  0.04667235  0.54070793     0.06000
H134        H  0.16882973  0.06822677  0.48670784     0.05900
O135        O  0.45512428  0.99781713  0.55739847    -0.81100
O136        O  0.42234451  0.02811360  0.43931898    -0.65800
O137        O  0.43143185  0.99132606  0.50675128    -1.12400
C138        C  0.51901511  0.97849383  0.47099988     1.05800
O139        O  0.43896932  0.99379551  0.41806663    -0.79000
O140        O  0.46575910  0.95330794  0.44028721    -0.66600
Ni141      Ni  0.42163089  0.00650536  0.54078601     1.34900
C142        C  0.45891183  0.94030289  0.46124978     0.84500
O143        O  0.38940588  0.01767109  0.48103891    -0.79600
O144        O  0.38709396  0.01566451  0.52691286    -0.89800
C145        C  0.42600277  0.01517690  0.41744809     0.84100
O146        O  0.43497624  0.04081940  0.53424307    -0.68000
O147        O  0.50895933  0.98471958  0.44792903    -0.87300
C148        C  0.43964300  0.05388225  0.51271182     0.84900
C149        C  0.37647666  0.01904909  0.50346581     1.06500
H150        H  0.47335231  0.01933653  0.47070864     0.38300
O151        O  0.46320636  0.00336475  0.46844299    -1.10000
O152        O  0.45774869  0.95022529  0.48503222    -0.66600
Ni153      Ni  0.46828220  0.98312289  0.50073127     1.26300
O154        O  0.43624446  0.04461452  0.48879190    -0.66900
O155        O  0.50537217  0.97578804  0.49299107    -0.79100
C156        C  0.46548416  0.97514309  0.55721123     0.84300
O157        O  0.47138608  0.96430523  0.53461503    -0.66300
Ni158      Ni  0.47366597  0.98942591  0.43418129     1.27400
Ni159      Ni  0.42631737  0.01090643  0.47397441     1.26100
H160        H  0.42102735  0.97547104  0.50509009     0.38800
C161        C  0.98168407  0.23948869  0.91799619     0.02900
C162        C  0.00408131  0.25063846  0.93051678    -0.13200
C163        C  0.01192575  0.27645035  0.92474083     0.00400
C164        C  0.99733927  0.29080883  0.90528365    -0.11800
C165        C  0.97506090  0.27976561  0.89231769     0.02900
C166        C  0.96718928  0.25417724  0.89887643    -0.11200
H167        H  0.01570895  0.23882548  0.94448121     0.08500
H168        H  0.00265301  0.31087904  0.90074988     0.06000
H169        H  0.94985798  0.24572529  0.88906015     0.05900
C170        C  0.20474933  0.89230779  0.05841342     0.02900
C171        C  0.21965987  0.90695302  0.07731519    -0.13200
C172        C  0.24654300  0.90120376  0.08229275     0.00400
C173        C  0.25832454  0.87979752  0.06898690    -0.11800
C174        C  0.24354321  0.86456606  0.05061527     0.02900
C175        C  0.21681828  0.87087144  0.04527830    -0.11200
H176        H  0.21063337  0.92365194  0.08735868     0.08500
H177        H  0.27920540  0.87538145  0.07233113     0.06000
H178        H  0.20591413  0.85983933  0.03004105     0.05900
C179        C  0.87295411  0.04422162  0.22792758     0.02900
C180        C  0.85929514  0.02673093  0.24523645    -0.13200
C181        C  0.85400380  0.03339347  0.27262239     0.00400
C182        C  0.86273100  0.05776013  0.28243471    -0.11800
C183        C  0.87641220  0.07545721  0.26551675     0.02900
C184        C  0.88086996  0.06866699  0.23811995    -0.11200
H185        H  0.85363108  0.00762383  0.23765782     0.08500
H186        H  0.85918480  0.06277962  0.30358638     0.06000
H187        H  0.89057563  0.08243796  0.22456436     0.05900
C188        C  0.91687812  0.72028242  0.04855867     0.02900
C189        C  0.93000364  0.70764228  0.07015601    -0.13200
C190        C  0.92189634  0.68289059  0.07928188     0.00400
C191        C  0.89998332  0.67082441  0.06667079    -0.11800
C192        C  0.88682752  0.68299731  0.04480969     0.02900
C193        C  0.89541415  0.70764699  0.03572224    -0.11200
H194        H  0.94673637  0.71715899  0.07991688     0.08500
H195        H  0.89382822  0.65141973  0.07295250     0.06000
H196        H  0.88488770  0.71719023  0.01916857     0.05900
C197        C  0.69526414  0.04157776  0.90793776     0.02900
C198        C  0.68201631  0.02346319  0.89108204    -0.13200
C199        C  0.65475530  0.02602545  0.88562424     0.00400
C200        C  0.64061973  0.04712277  0.89675979    -0.11800
C201        C  0.65332318  0.06554774  0.91362248     0.02900
C202        C  0.68072203  0.06264120  0.91906745    -0.11200
H203        H  0.69287071  0.00729298  0.88205070     0.08500
H204        H  0.61934935  0.04846543  0.89319838     0.06000
H205        H  0.69058098  0.07647449  0.93241094     0.05900
C206        C  0.03455142  0.91595697  0.74284584     0.02900
C207        C  0.01887620  0.89625053  0.73104420    -0.13200
C208        C  0.02216360  0.88951600  0.70358030     0.00400
C209        C  0.04092404  0.90278142  0.68757603    -0.11800
C210        C  0.05629838  0.92308864  0.69874672     0.02900
C211        C  0.05323877  0.92932176  0.72656234    -0.11200
H212        H  0.00376834  0.88635603  0.74305882     0.08500
H213        H  0.04242132  0.89813797  0.66601366     0.06000
H214        H  0.06544159  0.94452472  0.73554764     0.05900
O215        O  0.92475970  0.92165416  0.01047060    -0.81100
O216        O  0.94427579  0.03940178  0.98150068    -0.65800
O217        O  0.93350870  0.96540194  0.97691342    -1.12400
C218        C  0.02506060  0.96260333  0.00265841     1.05800
O219        O  0.98143823  0.03575707  0.95758052    -0.79000
O220        O  0.00440113  0.99045639  0.94443035    -0.66600
Ni221      Ni  0.90404526  0.94923536  0.99470526     1.34900
C222        C  0.99498653  0.96862634  0.93692538     0.84500
O223        O  0.90232567  0.01035183  0.96661002    -0.79600
O224        O  0.87991418  0.97492633  0.98088302    -0.89800
C225        C  0.96229559  0.04951105  0.96666117     0.84100
O226        O  0.90728137  0.96719008  0.02830609    -0.68000
O227        O  0.02606866  0.98637689  0.99477371    -0.87300
C228        C  0.91509602  0.98995237  0.03456426     0.84900
C229        C  0.88074798  0.99757638  0.97009730     1.06500
H230        H  0.97320114  0.99727599  0.01230648     0.38300
O231        O  0.97229144  0.99347226  0.99301434    -1.10000
O232        O  0.98046301  0.95438927  0.95219395    -0.66600
Ni233      Ni  0.96846506  0.95647065  0.98954927     1.26300
O234        O  0.92555075  0.00557045  0.01733832    -0.66900
O235        O  0.00384812  0.94881989  0.00238653    -0.79100
C236        C  0.94422559  0.90866066  0.00100776     0.84300
O237        O  0.96236127  0.91955017  0.98698006    -0.66300
Ni238      Ni  0.00234614  0.01030348  0.97706015     1.27400
Ni239      Ni  0.93759164  0.00255167  0.97987026     1.26100
H240        H  0.93204798  0.96116236  0.95770441     0.38800
C241        C  0.22088687  0.56430282  0.55098461     0.02900
C242        C  0.23527836  0.54673253  0.56767050    -0.13200
C243        C  0.26324747  0.54789409  0.56926566     0.00400
C244        C  0.27681605  0.56681304  0.55385722    -0.11800
C245        C  0.26301909  0.58444097  0.53702943     0.02900
C246        C  0.23506014  0.58330771  0.53594312    -0.11200
H247        H  0.22484219  0.53152433  0.57875833     0.08500
H248        H  0.29831435  0.56822404  0.55540307     0.06000
H249        H  0.22443390  0.59707174  0.52313601     0.05900
C250        C  0.71519163  0.40160172  0.41135416     0.02900
C251        C  0.70002061  0.38141461  0.42351772    -0.13200
C252        C  0.67208173  0.38039293  0.42002780     0.00400
C253        C  0.65952939  0.40015117  0.40468720    -0.11800
C254        C  0.67436275  0.42006994  0.39234104     0.02900
C255        C  0.70202068  0.42061472  0.39555942    -0.11200
H256        H  0.70994683  0.36643737  0.43539674     0.08500
H257        H  0.63803721  0.40030960  0.40250528     0.06000
H258        H  0.71308829  0.43671287  0.38667624     0.05900
C259        C  0.90026345  0.74178837  0.55358312     0.02900
C260        C  0.91360798  0.75263754  0.57608971    -0.13200
C261        C  0.90635918  0.77718540  0.58633477     0.00400
C262        C  0.88492861  0.79071582  0.57469806    -0.11800
C263        C  0.87151087  0.78051590  0.55184509     0.02900
C264        C  0.87942899  0.75605285  0.54140367    -0.11200
H265        H  0.92978269  0.74212003  0.58578635     0.08500
H266        H  0.87939958  0.80961911  0.58295730     0.06000
H267        H  0.87002743  0.74853052  0.52312634     0.05900
C268        C  0.98577240  0.22915209  0.41990244     0.02900
C269        C  0.00458153  0.21327596  0.43319810    -0.13200
C270        C  0.00914950  0.18771437  0.42416402     0.00400
C271        C  0.99479468  0.17779724  0.40202794    -0.11800
C272        C  0.97591676  0.19336123  0.38843677     0.02900
C273        C  0.97149968  0.21903256  0.39757395    -0.11200
H274        H  0.01604354  0.22088318  0.45019172     0.08500
H275        H  0.99809392  0.15770679  0.39580423     0.06000
H276        H  0.95706344  0.23125304  0.38720682     0.05900
C277        C  0.86477285  0.42430605  0.72514585     0.02900
C278        C  0.84654711  0.43975356  0.74000677    -0.13200
C279        C  0.84026616  0.43354313  0.76720428     0.00400
C280        C  0.85232802  0.41186687  0.77959933    -0.11800
C281        C  0.87130082  0.39694857  0.76546220     0.02900
C282        C  0.87727821  0.40307429  0.73817793    -0.11200
H283        H  0.83717185  0.45652588  0.73046773     0.08500
H284        H  0.84818291  0.40761194  0.80090225     0.06000
H285        H  0.89219904  0.39172721  0.72736662     0.05900
C286        C  0.03646960  0.53983409  0.24433477     0.02900
C287        C  0.05051439  0.52123130  0.22880079    -0.13200
C288        C  0.05130522  0.52311199  0.20026650     0.00400
C289        C  0.03810222  0.54370846  0.18720303    -0.11800
C290        C  0.02486116  0.56313704  0.20236906     0.02900
C291        C  0.02419839  0.56100888  0.23100161    -0.11200
H292        H  0.06005045  0.50476033  0.23873209     0.08500
H293        H  0.03828944  0.54447507  0.16507938     0.06000
H294        H  0.01437596  0.57594855  0.24305146     0.05900
O295        O  0.99845419  0.43185739  0.46790939    -0.81100
O296        O  0.96843458  0.54857384  0.49169558    -0.65800
O297        O  0.98423187  0.47563615  0.49948815    -1.12400
C298        C  0.89568193  0.46706046  0.46362563     1.05800
O299        O  0.93125016  0.53986753  0.51366460    -0.79000
O300        O  0.90659246  0.49466867  0.52264655    -0.66600
Ni301      Ni  0.01625036  0.46040422  0.48618749     1.34900
C302        C  0.91809027  0.47491984  0.53296916     0.84500
O303        O  0.01173343  0.52280929  0.51029979    -0.79600
O304        O  0.03716562  0.48701008  0.50380792    -0.89800
C305        C  0.94779130  0.55641601  0.50443148     0.84100
O306        O  0.01737125  0.47853658  0.45223579    -0.68000
O307        O  0.89289376  0.49140011  0.46887618    -0.87300
C308        C  0.00767520  0.50001003  0.44381105     0.84900
C309        C  0.03382911  0.51046596  0.51210499     1.06500
H310        H  0.94593423  0.50335696  0.45948375     0.38300
O311        O  0.94527924  0.50033882  0.47896651    -1.10000
O312        O  0.93653339  0.46252464  0.52074437    -0.66600
Ni313      Ni  0.95096843  0.46413488  0.48435128     1.26300
O314        O  0.99302404  0.51470281  0.45855723    -0.66900
O315        O  0.91679000  0.45401480  0.46930786    -0.79100
C316        C  0.97868493  0.41809941  0.47566969     0.84300
O317        O  0.95933797  0.42811658  0.48865115    -0.66300
Ni318      Ni  0.91290481  0.51538875  0.49092975     1.27400
Ni319      Ni  0.97806761  0.51226598  0.49479795     1.26100
H320        H  0.98411482  0.47231035  0.51892141     0.38800
C321        C  0.00574177  0.53679715  0.31501608    -0.11100
C322        C  0.02715535  0.52772212  0.33086595     0.06100
C323        C  0.05199365  0.52358145  0.31823399    -0.09800
C324        C  0.05520746  0.52796111  0.29023706    -0.11500
C325        C  0.03365020  0.53658032  0.27430805    -0.01300
C326        C  0.00894866  0.54116188  0.28704174    -0.10400
C327        C  0.02322474  0.52150630  0.36019612     0.06100
H328        H  0.06894803  0.51693310  0.33002119     0.08000
H329        H  0.07456127  0.52461396  0.28104095     0.11500
H330        H  0.99184994  0.54737301  0.27520901     0.11800
H331        H  0.98625980  0.53973543  0.32407769     0.08100
C332        C  0.00763386  0.53776558  0.37701300    -0.11100
C333        C  0.00288008  0.53107690  0.40430431    -0.10400
C334        C  0.01358620  0.50794934  0.41531098    -0.01300
C335        C  0.02953885  0.49194644  0.39853763    -0.11400
C336        C  0.03429000  0.49864768  0.37132713    -0.09900
H337        H  0.99909573  0.55566326  0.36904275     0.08100
H338        H  0.99058982  0.54388045  0.41667004     0.11800
H339        H  0.03808481  0.47396102  0.40628391     0.11500
H340        H  0.04606226  0.48553679  0.35878282     0.08000
C341        C  0.88418237  0.46344745  0.66246350    -0.11100
C342        C  0.88625743  0.44394802  0.64226010     0.06100
C343        C  0.88106201  0.41783004  0.64957868    -0.09800
C344        C  0.87398185  0.41143257  0.67645100    -0.11500
C345        C  0.87177412  0.43102377  0.69650986    -0.01300
C346        C  0.87688994  0.45708331  0.68919478    -0.10400
C347        C  0.89376411  0.45107090  0.61376737     0.06100
H348        H  0.88211154  0.40237908  0.63447613     0.08000
H349        H  0.86992069  0.39119347  0.68150605     0.11500
H350        H  0.87582601  0.47251503  0.70432883     0.11800
H351        H  0.88863358  0.48367243  0.65775167     0.08100
C352        C  0.88454022  0.47458465  0.60229288    -0.11100
C353        C  0.89235801  0.48210831  0.57609557    -0.10400
C354        C  0.90955135  0.46628401  0.56053639    -0.01300
C355        C  0.91842420  0.44247189  0.57169176    -0.11400
C356        C  0.91057700  0.43492273  0.59803209    -0.09900
H357        H  0.87112671  0.48723183  0.61354446     0.08100
H358        H  0.88504250  0.50052807  0.56813813     0.11800
H359        H  0.93155049  0.42975425  0.56015403     0.11500
H360        H  0.91819300  0.41675695  0.60629919     0.08000
C361        C  0.99429808  0.35463722  0.43969871    -0.11100
C362        C  0.97693529  0.33710196  0.45273329     0.06100
C363        C  0.96000547  0.34629691  0.47351842    -0.09800
C364        C  0.96029833  0.37273313  0.48092510    -0.11500
C365        C  0.97783818  0.39022014  0.46793524    -0.01300
C366        C  0.99483455  0.38087303  0.44728851    -0.10400
C367        C  0.97697425  0.30928161  0.44460540     0.06100
H368        H  0.94638285  0.33310361  0.48377474     0.08000
H369        H  0.94702429  0.37943288  0.49694616     0.11500
H370        H  0.00850555  0.39387950  0.43683753     0.11800
H371        H  0.00778146  0.34794717  0.42385235     0.08100
C372        C  0.97742895  0.30253085  0.41680165    -0.11100
C373        C  0.97979654  0.27646663  0.40886129    -0.10400
C374        C  0.98176638  0.25659964  0.42857110    -0.01300
C375        C  0.98061981  0.26326664  0.45642924    -0.11400
C376        C  0.97813545  0.28941818  0.46438796    -0.09900
H377        H  0.97631386  0.31750683  0.40118042     0.08100
H378        H  0.98087265  0.27193666  0.38726276     0.11800
H379        H  0.98180658  0.24827355  0.47202095     0.11500
H380        H  0.97796939  0.29419316  0.48595816     0.08000
C381        C  0.91315135  0.61749188  0.52903235    -0.11100
C382        C  0.92978429  0.63744483  0.51931183     0.06100
C383        C  0.95306601  0.63068703  0.50481170    -0.09800
C384        C  0.95934086  0.60433453  0.49990999    -0.11500
C385        C  0.94248139  0.58444767  0.50962421    -0.01300
C386        C  0.91938678  0.59141522  0.52426512    -0.10400
C387        C  0.92285183  0.66502937  0.52530773     0.06100
H388        H  0.96620401  0.64576393  0.49704438     0.08000
H389        H  0.97719844  0.59954726  0.48849125     0.11500
H390        H  0.90592707  0.57666532  0.53215388     0.11800
H391        H  0.89541686  0.62202620  0.54077449     0.08100
C392        C  0.89621021  0.67342568  0.52374049    -0.11100
C393        C  0.88897520  0.69841697  0.53248462    -0.10400
C394        C  0.90826934  0.71575237  0.54272297    -0.01300
C395        C  0.93511904  0.70767500  0.54320559    -0.11400
C396        C  0.94230903  0.68254682  0.53468197    -0.09900
H397        H  0.88082340  0.66041345  0.51626859     0.08100
H398        H  0.86810855  0.70380419  0.53200900     0.11800
H399        H  0.95062732  0.72068123  0.55036717     0.11500
H400        H  0.96295107  0.67653563  0.53628140     0.08000
C401        C  0.78182045  0.40716547  0.44789133    -0.11100
C402        C  0.79786354  0.41851239  0.42749687     0.06100
C403        C  0.78748347  0.42117392  0.40102072    -0.09800
C404        C  0.76119283  0.41394454  0.39537672    -0.11500
C405        C  0.74442962  0.40433399  0.41620067    -0.01300
C406        C  0.75532731  0.40023386  0.44233654    -0.10400
C407        C  0.82435913  0.42971605  0.43436460     0.06100
H408        H  0.79954694  0.42949239  0.38482798     0.08000
H409        H  0.75368990  0.41673697  0.37483980     0.11500
H410        H  0.74298281  0.39308704  0.45889896     0.11800
H411        H  0.78929459  0.40503901  0.46852969     0.08100
C412        C  0.83053438  0.45548145  0.42659568    -0.11100
C413        C  0.85422222  0.46725194  0.43522837    -0.10400
C414        C  0.87255507  0.45336371  0.45138377    -0.01300
C415        C  0.86697408  0.42719378  0.45813498    -0.11400
C416        C  0.84293962  0.41557587  0.44997311    -0.09900
H417        H  0.81647977  0.46692293  0.41479277     0.08100
H418        H  0.85794025  0.48746431  0.42977478     0.11800
H419        H  0.88060008  0.41612633  0.47081605     0.11500
H420        H  0.83867124  0.39567401  0.45617096     0.08000
C421        C  0.08979176  0.55918268  0.52246746    -0.11100
C422        C  0.10780004  0.54434367  0.53817435     0.06100
C423        C  0.09975152  0.51967539  0.54775389    -0.09800
C424        C  0.07501622  0.50934314  0.54038687    -0.11500
C425        C  0.05746922  0.52364031  0.52377102    -0.01300
C426        C  0.06467067  0.54902018  0.51558021    -0.10400
C427        C  0.13579360  0.55302584  0.54244934     0.06100
H428        H  0.11324009  0.50768386  0.55964844     0.08000
H429        H  0.06994271  0.48970531  0.54689110     0.11500
H430        H  0.05158314  0.56030704  0.50251659     0.11800
H431        H  0.09546528  0.57829806  0.51489756     0.08100
C432        C  0.15113858  0.56187888  0.52026078    -0.11100
C433        C  0.17855864  0.56617619  0.52317475    -0.10400
C434        C  0.19127730  0.56200612  0.54845821    -0.01300
C435        C  0.17556698  0.55441905  0.57097382    -0.11400
C436        C  0.14821581  0.54983173  0.56796056    -0.09900
H437        H  0.14219986  0.56414609  0.50026165     0.08100
H438        H  0.18994956  0.57165059  0.50526139     0.11800
H439        H  0.18447515  0.55162890  0.59090315     0.11500
H440        H  0.13681983  0.54326317  0.58548302     0.08000
C441        C  0.92821842  0.81345456  0.64987906    -0.11100
C442        C  0.95531932  0.81807125  0.64399825     0.06100
C443        C  0.96612074  0.80790894  0.61965385    -0.09800
C444        C  0.95026269  0.79381729  0.60155601    -0.11500
C445        C  0.92314183  0.78998522  0.60706867    -0.01300
C446        C  0.91218502  0.79976609  0.63138757    -0.10400
C447        C  0.97201220  0.83471766  0.66207888     0.06100
H448        H  0.98663389  0.81161176  0.61398213     0.08000
H449        H  0.95894667  0.78674538  0.58265240     0.11500
H450        H  0.89125454  0.79689846  0.63595615     0.11800
H451        H  0.91932095  0.82061249  0.66861213     0.08100
C452        C  0.96093406  0.85655042  0.67547654    -0.11100
C453        C  0.97718628  0.87380481  0.68998817    -0.10400
C454        C  0.00479727  0.86979148  0.69095049    -0.01300
C455        C  0.01587982  0.84768964  0.67843342    -0.11400
C456        C  0.99959818  0.83010025  0.66444807    -0.09900
H457        H  0.93990979  0.86100874  0.67379703     0.08100
H458        H  0.96838844  0.89092492  0.69945185     0.11800
H459        H  0.03717501  0.84424108  0.67924820     0.11500
H460        H  0.00874064  0.81314706  0.65505331     0.08000
C461        C  0.99412494  0.93096213  0.87018758    -0.11100
C462        C  0.01415797  0.94396390  0.85531998     0.06100
C463        C  0.02822191  0.96442136  0.86780189    -0.09800
C464        C  0.02201159  0.97218118  0.89432092    -0.11500
C465        C  0.00165684  0.95958446  0.90907991    -0.01300
C466        C  0.98796908  0.93865999  0.89689360    -0.10400
C467        C  0.02010782  0.93668557  0.82668152     0.06100
H468        H  0.04412746  0.97441887  0.85706305     0.08000
H469        H  0.03324918  0.98810587  0.90326564     0.11500
H470        H  0.97221769  0.92857505  0.90778314     0.11800
H471        H  0.98281232  0.91524696  0.86095443     0.08100
C472        C  0.02083597  0.91031506  0.81873071    -0.11100
C473        C  0.02604817  0.90358339  0.79160665    -0.10400
C474        C  0.03054281  0.92309035  0.77188149    -0.01300
C475        C  0.03015178  0.94945612  0.77990978    -0.11400
C476        C  0.02497819  0.95618317  0.80703336    -0.09900
H477        H  0.01759906  0.89488661  0.83353409     0.08100
H478        H  0.02664410  0.88308050  0.78606238     0.11800
H479        H  0.03310491  0.96491969  0.76508229     0.11500
H480        H  0.02415977  0.97669824  0.81250035     0.08000
C481        C  0.75961436  0.00785242  0.92787399    -0.11100
C482        C  0.77703947  0.02900770  0.93177254     0.06100
C483        C  0.76793064  0.05446161  0.92642007    -0.09800
C484        C  0.74147876  0.05867387  0.91825375    -0.11500
C485        C  0.72378906  0.03746965  0.91515550    -0.01300
C486        C  0.73334901  0.01200987  0.91979973    -0.10400
C487        C  0.80396617  0.02406076  0.94303919     0.06100
H488        H  0.78099949  0.07108060  0.92934924     0.08000
H489        H  0.73484849  0.07850469  0.91449384     0.11500
H490        H  0.72031214  0.99522556  0.91803857     0.11800
H491        H  0.76623362  0.98799040  0.93158283     0.08100
C492        C  0.80654242  0.00708633  0.96536139    -0.11100
C493        C  0.83157139  0.99957944  0.97458045    -0.10400
C494        C  0.85482111  0.00884280  0.96177475    -0.01300
C495        C  0.85245042  0.02716649  0.94047087    -0.11400
C496        C  0.82709207  0.03473906  0.93112704    -0.09900
H497        H  0.78905767  0.99911313  0.97536496     0.08100
H498        H  0.83268240  0.98593396  0.99148565     0.11800
H499        H  0.87005489  0.03470620  0.93034865     0.11500
H500        H  0.82554617  0.04798867  0.91393127     0.08000
C501        C  0.00777738  0.61336237  0.14827351    -0.11100
C502        C  0.98316568  0.62312297  0.15757936     0.06100
C503        C  0.97344475  0.61453869  0.18302882    -0.09800
C504        C  0.98723003  0.59556204  0.19797299    -0.11500
C505        C  0.01133640  0.58511472  0.18806747    -0.01300
C506        C  0.02183423  0.59495936  0.16349532    -0.10400
C507        C  0.96711378  0.64070950  0.13980940     0.06100
H508        H  0.95488357  0.62203405  0.19118144     0.08000
H509        H  0.97843654  0.58844739  0.21676635     0.11500
H510        H  0.04072883  0.58803335  0.15559524     0.11800
H511        H  0.01587335  0.61910710  0.12866380     0.08100
C512        C  0.97977263  0.65795621  0.12157206    -0.11100
C513        C  0.96507578  0.67170934  0.10218562    -0.10400
C514        C  0.93718905  0.66927337  0.10102419    -0.01300
C515        C  0.92431595  0.65318978  0.12022783    -0.11400
C516        C  0.93911415  0.63890356  0.13926005    -0.09900
H517        H  0.00119108  0.66045943  0.12178772     0.08100
H518        H  0.97578169  0.68363683  0.08755891     0.11800
H519        H  0.90282247  0.65127814  0.12026541     0.11500
H520        H  0.92859504  0.62569415  0.15277239     0.08000
C521        C  0.94006165  0.79045961  0.05341107    -0.11100
C522        C  0.93919444  0.79864312  0.02607498     0.06100
C523        C  0.93227647  0.78055167  0.00568563    -0.09800
C524        C  0.92531525  0.75488868  0.01278006    -0.11500
C525        C  0.92523561  0.74700917  0.04035645    -0.01300
C526        C  0.93297402  0.76506752  0.06049353    -0.10400
C527        C  0.94226789  0.82672518  0.01974205     0.06100
H528        H  0.93122515  0.78654485  0.98447978     0.08000
H529        H  0.91978544  0.74132109  0.99676817     0.11500
H530        H  0.93272992  0.75989100  0.08194872     0.11800
H531        H  0.94540522  0.80405799  0.06948187     0.08100
C532        C  0.92805627  0.84490540  0.03546798    -0.11100
C533        C  0.92959010  0.87141514  0.02968208    -0.10400
C534        C  0.94538552  0.88057235  0.00795631    -0.01300
C535        C  0.96023699  0.86252442  0.99247677    -0.11400
C536        C  0.95849296  0.83565129  0.99820526    -0.09900
H537        H  0.91514450  0.83852769  0.05194371     0.08100
H538        H  0.91795557  0.88476265  0.04209946     0.11800
H539        H  0.97247626  0.86908655  0.97556512     0.11500
H540        H  0.96969600  0.82188365  0.98588657     0.08000
C541        C  0.92551641  0.12957221  0.28184949    -0.11100
C542        C  0.91440083  0.14025782  0.30577650     0.06100
C543        C  0.88874721  0.13218390  0.31374862    -0.09800
C544        C  0.87548591  0.11255044  0.29937869    -0.11500
C545        C  0.88786003  0.09990468  0.27719189    -0.01300
C546        C  0.91263616  0.10936467  0.26799490    -0.10400
C547        C  0.93068046  0.15705251  0.32413290     0.06100
H548        H  0.87943051  0.13983872  0.33203814     0.08000
H549        H  0.85597507  0.10656499  0.30646561     0.11500
H550        H  0.92294644  0.10025119  0.25104410     0.11800
H551        H  0.94482993  0.13590562  0.27451358     0.08100
C552        C  0.95820164  0.15240072  0.32676459    -0.11100
C553        C  0.97302779  0.16515659  0.34676296    -0.10400
C554        C  0.96068091  0.18249346  0.36508354    -0.01300
C555        C  0.93347384  0.18822511  0.36167101    -0.11400
C556        C  0.91868457  0.17580413  0.34125813    -0.09900
H557        H  0.96821933  0.13790655  0.31432481     0.08100
H558        H  0.99410153  0.16083487  0.34835291     0.11800
H559        H  0.92331205  0.20147887  0.37545245     0.11500
H560        H  0.89768272  0.18033824  0.33947723     0.08000
C561        C  0.91305451  0.03152489  0.09894345    -0.11100
C562        C  0.90044435  0.01437649  0.11735114     0.06100
C563        C  0.89417494  0.98896485  0.10876895    -0.09800
C564        C  0.89953862  0.98104052  0.08211556    -0.11500
C565        C  0.91123708  0.99837948  0.06325365    -0.01300
C566        C  0.91833909  0.02361718  0.07204942    -0.10400
C567        C  0.89324541  0.02281120  0.14534481     0.06100
H568        H  0.88499471  0.97518453  0.12271981     0.08000
H569        H  0.89409740  0.96133126  0.07623139     0.11500
H570        H  0.92752636  0.03736178  0.05807452     0.11800
H571        H  0.91812092  0.05124455  0.10513315     0.08100
C572        C  0.91156567  0.03642365  0.16162979    -0.11100
C573        C  0.90497948  0.04328106  0.18844954    -0.10400
C574        C  0.87984832  0.03686112  0.19942990    -0.01300
C575        C  0.86144240  0.02351137  0.18297456    -0.11400
C576        C  0.86807919  0.01655762  0.15621595    -0.09900
H577        H  0.93119147  0.04119395  0.15383695     0.08100
H578        H  0.91975503  0.05321870  0.20077519     0.11800
H579        H  0.84181070  0.01868756  0.19070127     0.11500
H580        H  0.85344496  0.00639156  0.14390977     0.08000
C581        C  0.07594815  0.91897774  0.03787426    -0.11100
C582        C  0.09986701  0.92873482  0.02676996     0.06100
C583        C  0.09865341  0.94888855  0.00733175    -0.09800
C584        C  0.07431308  0.95973844  0.99985826    -0.11500
C585        C  0.05042412  0.95050863  0.01130032    -0.01300
C586        C  0.05134377  0.92971161  0.03006836    -0.10400
C587        C  0.12626386  0.91888589  0.03577139     0.06100
H588        H  0.11663373  0.95634237  0.99784710     0.08000
H589        H  0.07419115  0.97527972  0.98480109     0.11500
H590        H  0.03316557  0.92216150  0.03905532     0.11800
H591        H  0.07632647  0.90351170  0.05299183     0.08100
C592        C  0.14716232  0.93668088  0.04005412    -0.11100
C593        C  0.17245067  0.92791537  0.04728469    -0.10400
C594        C  0.17753881  0.90109968  0.05077173    -0.01300
C595        C  0.15665169  0.88317545  0.04666512    -0.11400
C596        C  0.13116613  0.89201313  0.03933875    -0.09900
H597        H  0.14396535  0.95752450  0.03779424     0.08100
H598        H  0.18818025  0.94221747  0.04976400     0.11800
H599        H  0.15999558  0.86239779  0.04928662     0.11500
H600        H  0.11546505  0.87785398  0.03595889     0.08000
C601        C  0.88783204  0.33990011  0.81163039    -0.11100
C602        C  0.91569156  0.34238177  0.81442562     0.06100
C603        C  0.92880505  0.36182176  0.79900621    -0.09800
C604        C  0.91444750  0.37861169  0.78193700    -0.11500
C605        C  0.88661711  0.37677598  0.78032308    -0.01300
C606        C  0.87344258  0.35714766  0.79508252    -0.10400
C607        C  0.93080666  0.32554332  0.83404930     0.06100
H608        H  0.95006132  0.36486586  0.80083156     0.08000
H609        H  0.92495347  0.39389470  0.77100257     0.11500
H610        H  0.85195041  0.35537382  0.79401598     0.11800
H611        H  0.87697663  0.32479828  0.82240729     0.08100
C612        C  0.91858510  0.31616305  0.85811674    -0.11100
C613        C  0.93283518  0.30087656  0.87676168    -0.10400
C614        C  0.95979129  0.29519065  0.87218069    -0.01300
C615        C  0.97220602  0.30455085  0.84844371    -0.11400
C616        C  0.95780708  0.31924879  0.82939558    -0.09900
H617        H  0.89814075  0.32104095  0.86299224     0.08100
H618        H  0.92299868  0.29399967  0.89513337     0.11800
H619        H  0.99299290  0.30017706  0.84450329     0.11500
H620        H  0.96790029  0.32547943  0.81096064     0.08000
C621        C  0.97600503  0.11233808  0.92853403    -0.11100
C622        C  0.96247480  0.13095092  0.94447090     0.06100
C623        C  0.94777437  0.12238662  0.96732562    -0.09800
C624        C  0.94691243  0.09578420  0.97422002    -0.11500
C625        C  0.96101300  0.07735516  0.95857057    -0.01300
C626        C  0.97533693  0.08591242  0.93553184    -0.10400
C627        C  0.96481097  0.15921261  0.93776204     0.06100
H628        H  0.93700119  0.13626664  0.97989903     0.08000
H629        H  0.93583374  0.08973038  0.99215293     0.11500
H630        H  0.98636244  0.07216339  0.92301143     0.11800
H631        H  0.98783450  0.11828077  0.91107404     0.08100
C632        C  0.96862275  0.17775891  0.95859494    -0.11100
C633        C  0.97327380  0.20399206  0.95215468    -0.10400
C634        C  0.97408080  0.21226019  0.92477210    -0.01300
C635        C  0.96932907  0.19397605  0.90396210    -0.11400
C636        C  0.96482535  0.16769265  0.91038402    -0.09900
H637        H  0.96900628  0.17183950  0.97984179     0.08100
H638        H  0.97672826  0.21779757  0.96857269     0.11800
H639        H  0.97002977  0.19985010  0.88270090     0.11500
H640        H  0.96166311  0.15392209  0.89388646     0.08000
C641        C  0.08337172  0.11340109  0.50366272    -0.11100
C642        C  0.08320323  0.11685240  0.47518914     0.06100
C643        C  0.10052113  0.10167058  0.45902482    -0.09800
C644        C  0.11739935  0.08321852  0.47110653    -0.11500
C645        C  0.11726229  0.07958773  0.49958052    -0.01300
C646        C  0.10017276  0.09501008  0.51569524    -0.10400
C647        C  0.06456479  0.13583083  0.46249957     0.06100
H648        H  0.10061044  0.10363805  0.43698885     0.08000
H649        H  0.13018891  0.07148211  0.45813695     0.11500
H650        H  0.10006579  0.09314554  0.53774706     0.11800
H651        H  0.07069702  0.12515271  0.51673661     0.08100
C652        C  0.03844864  0.13853074  0.47268165    -0.11100
C653        C  0.02063879  0.15597863  0.46056432    -0.10400
C654        C  0.02858808  0.17091447  0.43803887    -0.01300
C655        C  0.05457557  0.16851785  0.42781930    -0.11400
C656        C  0.07250499  0.15115430  0.44002487    -0.09900
H657        H  0.03155947  0.12670561  0.48963553     0.08100
H658        H  0.00047956  0.15746573  0.46839015     0.11800
H659        H  0.06085191  0.17991354  0.41028583     0.11500
H660        H  0.09256093  0.14976766  0.43194166     0.08000
C661        C  0.13523371  0.97635539  0.60415456    -0.11100
C662        C  0.11367244  0.98578208  0.61972585     0.06100
C663        C  0.10270541  0.01026050  0.61286171    -0.09800
C664        C  0.11273399  0.02466670  0.59090222    -0.11500
C665        C  0.13348724  0.01469164  0.57457554    -0.01300
C666        C  0.14469918  0.99037642  0.58165713    -0.10400
C667        C  0.10166016  0.96958759  0.64192257     0.06100
H668        H  0.08584622  0.01815495  0.62393969     0.08000
H669        H  0.10399812  0.04360088  0.58671352     0.11500
H670        H  0.16047239  0.98175343  0.56952931     0.11800
H671        H  0.14472616  0.95794216  0.60906905     0.08100
C672        C  0.10158392  0.94209635  0.64005485    -0.11100
C673        C  0.08809491  0.92695718  0.65935222    -0.10400
C674        C  0.07387746  0.93887374  0.68073662    -0.01300
C675        C  0.07481526  0.96622703  0.68335389    -0.11400
C676        C  0.08873998  0.98137672  0.66434067    -0.09900
H677        H  0.11094220  0.93213092  0.62305818     0.08100
H678        H  0.08813989  0.90588620  0.65704906     0.11800
H679        H  0.06392142  0.97605734  0.69948841     0.11500
H680        H  0.08888824  0.00238629  0.66701525     0.08000
C681        C  0.30703868  0.03559128  0.47774644    -0.11100
C682        C  0.29182730  0.03096438  0.50132470     0.06100
C683        C  0.30455185  0.02366761  0.52560845    -0.09800
C684        C  0.33207097  0.02048572  0.52631647    -0.11500
C685        C  0.34748011  0.02422276  0.50261095    -0.01300
C686        C  0.33472727  0.03201902  0.47830791    -0.10400
C687        C  0.26257962  0.03280847  0.50103932     0.06100
H688        H  0.29307498  0.02024606  0.54404934     0.08000
H689        H  0.34117173  0.01450138  0.54537765     0.11500
H690        H  0.34608380  0.03513901  0.45974757     0.11800
H691        H  0.29742833  0.04126404  0.45884138     0.08100
C692        C  0.24982033  0.05672951  0.49602653    -0.11100
C693        C  0.22238493  0.05922924  0.50059526    -0.10400
C694        C  0.20739817  0.03771442  0.50993487    -0.01300
C695        C  0.22010889  0.01336338  0.51295122    -0.11400
C696        C  0.24746194  0.01102203  0.50884207    -0.09900
H697        H  0.26130266  0.07376172  0.49011933     0.08100
H698        H  0.21325380  0.07827939  0.49819897     0.11800
H699        H  0.20902677  0.99623656  0.51932790     0.11500
H700        H  0.25702916  0.99235186  0.51256738     0.08000
C701        C  0.29283658  0.99616445  0.16098820    -0.11100
C702        C  0.30643186  0.97699959  0.14558082     0.06100
C703        C  0.33447550  0.97775697  0.14483222    -0.09800
C704        C  0.34844580  0.99746500  0.15841121    -0.11500
C705        C  0.33479035  0.01654821  0.17352497    -0.01300
C706        C  0.30692417  0.01561812  0.17503022    -0.10400
C707        C  0.29152842  0.95665253  0.12993455     0.06100
H708        H  0.34573339  0.96309776  0.13378400     0.08000
H709        H  0.37000524  0.99788084  0.15710780     0.11500
H710        H  0.29607277  0.03040223  0.18636229     0.11800
H711        H  0.27127901  0.99658578  0.16167632     0.08100
C712        C  0.26721037  0.94661153  0.13977337    -0.11100
C713        C  0.25286993  0.92819888  0.12460588    -0.10400
C714        C  0.26267061  0.91909649  0.09944453    -0.01300
C715        C  0.28717161  0.92863033  0.08980737    -0.11400
C716        C  0.30133413  0.94731248  0.10475038    -0.09900
H717        H  0.25923569  0.95287544  0.15927122     0.08100
H718        H  0.23406392  0.92104778  0.13253110     0.11800
H719        H  0.29491772  0.92232444  0.07020176     0.11500
H720        H  0.31962642  0.95492847  0.09611958     0.08000
C721        C  0.36107020  0.05005649  0.30359261    -0.11100
C722        C  0.38791999  0.04968432  0.31171003     0.06100
C723        C  0.40777720  0.05496000  0.29227178    -0.09800
C724        C  0.40115644  0.05938694  0.26499720    -0.11500
C725        C  0.37446890  0.05846485  0.25636064    -0.01300
C726        C  0.35439079  0.05421512  0.27604068    -0.10400
C727        C  0.39592345  0.04072017  0.33930128     0.06100
H728        H  0.42861038  0.05468408  0.29807407     0.08000
H729        H  0.41714458  0.06214623  0.25038488     0.11500
H730        H  0.33364995  0.05346396  0.26998684     0.11800
H731        H  0.34544909  0.04583065  0.31824584     0.08100
C732        C  0.38772618  0.05368101  0.36323345    -0.11100
C733        C  0.39731188  0.04555112  0.38889363    -0.10400
C734        C  0.41484347  0.02408813  0.39090298    -0.01300
C735        C  0.42232248  0.01092366  0.36684118    -0.11400
C736        C  0.41309205  0.01919531  0.34144767    -0.09900
H737        H  0.37451821  0.07040206  0.36198356     0.08100
H738        H  0.39114484  0.05606440  0.40705401     0.11800
H739        H  0.43574602  0.99433790  0.36750665     0.11500
H740        H  0.41951692  0.00879521  0.32329185     0.08000
C741        C  0.78733899  0.83574364  0.46666104    -0.11100
C742        C  0.79175772  0.84093329  0.49445962     0.06100
C743        C  0.77902841  0.86235323  0.50678678    -0.09800
C744        C  0.76279944  0.87888449  0.49133888    -0.11500
C745        C  0.75951308  0.87455134  0.46321040    -0.01300
C746        C  0.77153519  0.85260670  0.45106058    -0.10400
C747        C  0.81132986  0.82538685  0.51000519     0.06100
H748        H  0.78219694  0.86661754  0.52822807     0.08000
H749        H  0.75390149  0.89582156  0.50105330     0.11500
H750        H  0.76922803  0.84893641  0.42938541     0.11800
H751        H  0.79712876  0.81937645  0.45678225     0.08100
C752        C  0.80911478  0.79810015  0.51170744    -0.11100
C753        C  0.82829470  0.78354539  0.52580968    -0.10400
C754        C  0.85034432  0.79599435  0.53795914    -0.01300
C755        C  0.85242556  0.82339278  0.53605095    -0.11400
C756        C  0.83299169  0.83792502  0.52244981    -0.09900
H757        H  0.79245764  0.78811597  0.50227325     0.08100
H758        H  0.82581201  0.76255378  0.52722662     0.11800
H759        H  0.86940625  0.83363907  0.54447734     0.11500
H760        H  0.83524266  0.85895740  0.52097389     0.08000
C761        C  0.76652878  0.96587868  0.34584803    -0.11100
C762        C  0.79437867  0.96804625  0.34830494     0.06100
C763        C  0.80695593  0.95582493  0.37056064    -0.09800
C764        C  0.79210302  0.94244501  0.39022466    -0.11500
C765        C  0.76422186  0.94040638  0.38798837    -0.01300
C766        C  0.75165399  0.95210691  0.36535632    -0.10400
C767        C  0.81025211  0.98371962  0.32841400     0.06100
H768        H  0.82838830  0.95668057  0.37293393     0.08000
H769        H  0.80256548  0.93422872  0.40754219     0.11500
H770        H  0.73028956  0.95069488  0.36268117     0.11800
H771        H  0.75611551  0.97528245  0.32915644     0.08100
C772        C  0.80374084  0.98422601  0.30044034    -0.11100
C773        C  0.81828424  0.99978749  0.28214256    -0.10400
C774        C  0.83975186  0.01510380  0.29138125    -0.01300
C775        C  0.84674537  0.01383239  0.31919405    -0.11400
C776        C  0.83203409  0.99865314  0.33746485    -0.09900
H777        H  0.78735557  0.97264643  0.29267246     0.08100
H778        H  0.81225184  0.00034151  0.26091352     0.11800
H779        H  0.86355598  0.02475907  0.32703077     0.11500
H780        H  0.83749354  0.99907350  0.35885915     0.08000
C781        C  0.63801603  0.94866937  0.43161878    -0.11100
C782        C  0.62978499  0.95145793  0.45895388     0.06100
C783        C  0.64779933  0.94519140  0.47992323    -0.09800
C784        C  0.67358538  0.93653480  0.47361048    -0.11500
C785        C  0.68178522  0.93393648  0.44621193    -0.01300
C786        C  0.66366518  0.94005989  0.42533908    -0.10400
C787        C  0.60233543  0.96064170  0.46509341     0.06100
H788        H  0.64207828  0.94733632  0.50115747     0.08000
H789        H  0.68721491  0.93221327  0.49014762     0.11500
H790        H  0.66917415  0.93774075  0.40406058     0.11800
H791        H  0.62442178  0.95272816  0.41497444     0.08100
C792        C  0.59087977  0.98035737  0.44896634    -0.11100
C793        C  0.56409919  0.98686046  0.45195654    -0.10400
C794        C  0.54810046  0.97404089  0.47136025    -0.01300
C795        C  0.55983573  0.95554443  0.48883580    -0.11400
C796        C  0.58678730  0.94881614  0.48565745    -0.09900
H797        H  0.60249821  0.99034100  0.43348008     0.08100
H798        H  0.55569084  0.00153210  0.43850779     0.11800
H799        H  0.54789466  0.94534540  0.50390465     0.11500
H800        H  0.59508374  0.93350919  0.49836163     0.08000
C801        C  0.59572239  0.94652774  0.79749940    -0.11100
C802        C  0.59418538  0.94910352  0.82596562     0.06100
C803        C  0.57516797  0.93456056  0.84045163    -0.09800
C804        C  0.55692802  0.91878090  0.82651134    -0.11500
C805        C  0.55776149  0.91668481  0.79776723    -0.01300
C806        C  0.57803476  0.93016437  0.78359500    -0.10400
C807        C  0.61102448  0.96838088  0.84030977     0.06100
H808        H  0.57357721  0.93644552  0.86245211     0.08000
H809        H  0.54149548  0.90922940  0.83830489     0.11500
H810        H  0.58008669  0.92847915  0.76165217     0.11800
H811        H  0.61048288  0.95741917  0.78600478     0.08100
C812        C  0.62726721  0.96078396  0.86224973    -0.11100
C813        C  0.64221332  0.97945500  0.87645308    -0.10400
C814        C  0.64059716  0.00603909  0.86931634    -0.01300
C815        C  0.62440256  0.01356718  0.84731210    -0.11400
C816        C  0.60995555  0.99484733  0.83274262    -0.09900
H817        H  0.62828744  0.94045064  0.86839445     0.08100
H818        H  0.65442570  0.97328066  0.89351905     0.11800
H819        H  0.62288067  0.03396042  0.84149727     0.11500
H820        H  0.59734303  0.00109534  0.81601339     0.08000
C821        C  0.49096097  0.92755482  0.61128276    -0.11100
C822        C  0.48015103  0.93853430  0.63527698     0.06100
C823        C  0.46401706  0.96087187  0.63303960    -0.09800
C824        C  0.45950077  0.97251759  0.60772121    -0.11500
C825        C  0.47079932  0.96208865  0.58376117    -0.01300
C826        C  0.48628076  0.93921233  0.58571146    -0.10400
C827        C  0.48642352  0.92778378  0.66281037     0.06100
H828        H  0.45486361  0.96946091  0.65098744     0.08000
H829        H  0.44699405  0.98977929  0.60696562     0.11500
H830        H  0.49506278  0.93058831  0.56759154     0.11800
H831        H  0.50357358  0.91039188  0.61237322     0.08100
C832        C  0.48690211  0.90068564  0.66783360    -0.11100
C833        C  0.49283780  0.89108480  0.69401511    -0.10400
C834        C  0.49865207  0.90840353  0.71555518    -0.01300
C835        C  0.49777842  0.93544156  0.71051015    -0.11400
C836        C  0.49186455  0.94497822  0.68451905    -0.09900
H837        H  0.48254421  0.88696221  0.65158353     0.08100
H838        H  0.49349424  0.87014025  0.69727239     0.11800
H839        H  0.50177003  0.94932410  0.72671651     0.11500
H840        H  0.49196053  0.96594071  0.68132413     0.08000
C841        C  0.32244735  0.68171988  0.46772555    -0.11100
C842        C  0.33076953  0.66033379  0.48371721     0.06100
C843        C  0.35813303  0.65693997  0.48872605    -0.09800
C844        C  0.37684055  0.67362456  0.47694392    -0.11500
C845        C  0.36866980  0.69427894  0.46009332    -0.01300
C846        C  0.34131965  0.69861765  0.45597920    -0.10400
C847        C  0.31147629  0.64094033  0.49470930     0.06100
H848        H  0.36513630  0.64105971  0.50149312     0.08000
H849        H  0.39785179  0.67003850  0.48043510     0.11500
H850        H  0.33467584  0.71431570  0.44276837     0.11800
H851        H  0.30149425  0.68476375  0.46348801     0.08100
C852        C  0.28751954  0.64881785  0.50721590    -0.11100
C853        C  0.27104443  0.63036600  0.52010135    -0.10400
C854        C  0.27830236  0.60378936  0.52066194    -0.01300
C855        C  0.30145653  0.59584540  0.50679410    -0.11400
C856        C  0.31779748  0.61416324  0.49395650    -0.09900
H857        H  0.28213900  0.66931894  0.50807498     0.08100
H858        H  0.25329855  0.63700744  0.53065649     0.11800
H859        H  0.30720507  0.57541842  0.50633474     0.11500
H860        H  0.33572880  0.60740088  0.48381115     0.08000
C861        C  0.42754301  0.81373990  0.46872029    -0.11100
C862        C  0.43108621  0.83081814  0.44638555     0.06100
C863        C  0.42723085  0.82086988  0.41981521    -0.09800
C864        C  0.42079359  0.79456433  0.41568350    -0.11500
C865        C  0.41746474  0.77764252  0.43799217    -0.01300
C866        C  0.42055402  0.78753017  0.46455930    -0.10400
C867        C  0.43877963  0.85878898  0.45065031     0.06100
H868        H  0.42902067  0.83339602  0.40208257     0.08000
H869        H  0.41835108  0.78739513  0.39499966     0.11500
H870        H  0.41846937  0.77473162  0.48207898     0.11800
H871        H  0.43078169  0.82037270  0.48945279     0.08100
C872        C  0.43032824  0.87262376  0.47402276    -0.11100
C873        C  0.43713547  0.89894712  0.47765420    -0.10400
C874        C  0.45215033  0.91226545  0.45778861    -0.01300
C875        C  0.46080237  0.89849228  0.43456270    -0.11400
C876        C  0.45445709  0.87206544  0.43117855    -0.09900
H877        H  0.41793577  0.86335224  0.48932537     0.08100
H878        H  0.43015429  0.90903008  0.49577825     0.11800
H879        H  0.47278492  0.90807538  0.41908928     0.11500
H880        H  0.46208484  0.86204306  0.41332058     0.08000
C881        C  0.60334466  0.28821884  0.48852002    -0.11100
C882        C  0.59790666  0.31190318  0.47508948     0.06100
C883        C  0.57219975  0.32267688  0.47690485    -0.09800
C884        C  0.55248344  0.31044075  0.49255907    -0.11500
C885        C  0.55792543  0.28687901  0.50618815    -0.01300
C886        C  0.58337572  0.27561461  0.50367602    -0.10400
C887        C  0.61898701  0.32610861  0.45991978     0.06100
H888        H  0.56763187  0.34101212  0.46683926     0.08000
H889        H  0.53301962  0.31948670  0.49427728     0.11500
H890        H  0.58802824  0.25755187  0.51421924     0.11800
H891        H  0.62303310  0.27958364  0.48734661     0.08100
C892        C  0.64226089  0.33449811  0.47323295    -0.11100
C893        C  0.66027916  0.35121370  0.45993980    -0.10400
C894        C  0.65542456  0.35961279  0.43300128    -0.01300
C895        C  0.63296321  0.34966937  0.41922786    -0.11400
C896        C  0.61482426  0.33335355  0.43262797    -0.09900
H897        H  0.64576804  0.32922465  0.49436810     0.08100
H898        H  0.67723928  0.35859512  0.47121181     0.11800
H899        H  0.62896020  0.35515420  0.39825255     0.11500
H900        H  0.59715292  0.32686174  0.42188889     0.08000
C901        C  0.50581862  0.16615071  0.51715109    -0.11100
C902        C  0.48030488  0.15926500  0.52648315     0.06100
C903        C  0.46475174  0.17819494  0.53976878    -0.09800
C904        C  0.47438265  0.20360985  0.54345851    -0.11500
C905        C  0.50022193  0.21063636  0.53468698    -0.01300
C906        C  0.51580295  0.19141574  0.52148885    -0.10400
C907        C  0.46994213  0.13233280  0.52274456     0.06100
H908        H  0.44487876  0.17341652  0.54687940     0.08000
H909        H  0.46125563  0.21778791  0.55288039     0.11500
H910        H  0.53591700  0.19562508  0.51483898     0.11800
H911        H  0.51827319  0.15177136  0.50705033     0.08100
C912        C  0.46994801  0.12044960  0.49685066    -0.11100
C913        C  0.45972906  0.09514419  0.49340655    -0.10400
C914        C  0.44969927  0.08106982  0.51590119    -0.01300
C915        C  0.44990535  0.09304372  0.54183096    -0.11400
C916        C  0.45973069  0.11842848  0.54515694    -0.09900
H917        H  0.47757053  0.13089517  0.47923699     0.08100
H918        H  0.45994079  0.08651292  0.47319110     0.11800
H919        H  0.44240488  0.08282083  0.55963841     0.11500
H920        H  0.45966828  0.12712819  0.56535103     0.08000
C921        C  0.47146173  0.12982694  0.10107777    -0.11100
C922        C  0.44488059  0.13645467  0.10673876     0.06100
C923        C  0.43326400  0.15768872  0.09301344    -0.09800
C924        C  0.44794137  0.17193473  0.07375638    -0.11500
C925        C  0.47469038  0.16547331  0.06815257    -0.01300
C926        C  0.48626791  0.14428582  0.08217390    -0.10400
C927        C  0.42911630  0.12070076  0.12632363     0.06100
H928        H  0.41265291  0.16289876  0.09679547     0.08000
H929        H  0.43820965  0.18779331  0.06302088     0.11500
H930        H  0.50693638  0.13906278  0.07885668     0.11800
H931        H  0.48087370  0.11361791  0.11157325     0.08100
C932        C  0.42806073  0.09341345  0.12351195    -0.11100
C933        C  0.41262691  0.07841294  0.14135413    -0.10400
C934        C  0.39816167  0.09034776  0.16260150    -0.01300
C935        C  0.39973795  0.11761261  0.16587455    -0.11400
C936        C  0.41489100  0.13270888  0.14768787    -0.09900
H937        H  0.43881437  0.08374663  0.10715853     0.08100
H938        H  0.41203930  0.05739551  0.13859358     0.11800
H939        H  0.38877775  0.12725616  0.18209074     0.11500
H940        H  0.41561967  0.15373345  0.15033784     0.08000
C941        C  0.59174654  0.16057082  0.98373818    -0.11100
C942        C  0.58348972  0.13984708  0.96687083     0.06100
C943        C  0.55613727  0.13445351  0.96447019    -0.09800
C944        C  0.53744911  0.14895711  0.97927494    -0.11500
C945        C  0.54569824  0.16943631  0.99639374    -0.01300
C946        C  0.57294462  0.17545668  0.99816325    -0.10400
C947        C  0.60317603  0.12307879  0.95256472     0.06100
H948        H  0.54928326  0.11844573  0.95179000     0.08000
H949        H  0.51651572  0.14400704  0.97763970     0.11500
H950        H  0.57969788  0.19108342  0.01140212     0.11800
H951        H  0.61272573  0.16513145  0.98582594     0.08100
C952        C  0.59962442  0.11674596  0.92490064    -0.11100
C953        C  0.61663565  0.09896193  0.91199494    -0.10400
C954        C  0.63737378  0.08678610  0.92656654    -0.01300
C955        C  0.64147284  0.09383895  0.95405043    -0.11400
C956        C  0.62460374  0.11191254  0.96687888    -0.09900
H957        H  0.58343066  0.12534258  0.91335226     0.08100
H958        H  0.61326274  0.09439493  0.89066475     0.11800
H959        H  0.65699930  0.08459425  0.96598742     0.11500
H960        H  0.62758095  0.11630303  0.98831842     0.08000
C961        C  0.51248860  0.29668109  0.02881808    -0.11100
C962        C  0.48677604  0.30532946  0.02170423     0.06100
C963        C  0.46695138  0.28664811  0.01620747    -0.09800
C964        C  0.47253677  0.25996412  0.01813862    -0.11500
C965        C  0.49815041  0.25133177  0.02523460    -0.01300
C966        C  0.51820365  0.26985368  0.03029497    -0.10400
C967        C  0.48015203  0.33364437  0.02054500     0.06100
H968        H  0.44689606  0.29270016  0.01101440     0.08000
H969        H  0.45680349  0.24597188  0.01413596     0.11500
H970        H  0.53806150  0.26354740  0.03594392     0.11800
H971        H  0.52815430  0.31066243  0.03307189     0.08100
C972        C  0.48801354  0.35068462  0.04158541    -0.11100
C973        C  0.47953052  0.37680354  0.04167422    -0.10400
C974        C  0.46326558  0.38648699  0.02054620    -0.01300
C975        C  0.45629029  0.36963236  0.99900096    -0.11400
C976        C  0.46453251  0.34351658  0.99907371    -0.09900
H977        H  0.49990680  0.34356582  0.05848048     0.08100
H978        H  0.48534401  0.38928909  0.05852534     0.11800
H979        H  0.44381989  0.37641184  0.98239316     0.11500
H980        H  0.45843110  0.33090418  0.98243092     0.08000
C981        C  0.09380036  0.32942011  0.01430380    -0.11100
C982        C  0.09742060  0.32621287  0.98596281     0.06100
C983        C  0.12011123  0.33757348  0.97374118    -0.09800
C984        C  0.13777725  0.35280894  0.98917494    -0.11500
C985        C  0.13346160  0.35661601  0.01729565    -0.01300
C986        C  0.11178522  0.34392199  0.02974903    -0.10400
C987        C  0.07691004  0.31212576  0.96939181     0.06100
H988        H  0.12411827  0.33508647  0.95216546     0.08000
H989        H  0.15424793  0.36230127  0.97886591     0.11500
H990        H  0.10820627  0.34577555  0.05149798     0.11800
H991        H  0.07653388  0.32158260  0.02470416     0.08100
C992        C  0.06083816  0.29270232  0.98141838    -0.11100
C993        C  0.03981067  0.28144693  0.96702873    -0.10400
C994        C  0.03475214  0.28840264  0.93971777    -0.01300
C995        C  0.05144890  0.30699025  0.92720766    -0.11400
C996        C  0.07205299  0.31890425  0.94192287    -0.09900
H997        H  0.06420928  0.28617833  0.00215362     0.08100
H998        H  0.02722467  0.26757465  0.97765360     0.11800
H999        H  0.04854000  0.31251820  0.90606584     0.11500
H1000       H  0.08362022  0.33393498  0.93184883     0.08000
C1001       C  0.10305980  0.42820073  0.12483785    -0.11100
C1002       C  0.11092597  0.45397628  0.13026026     0.06100
C1003       C  0.13318052  0.46434156  0.11665412    -0.09800
C1004       C  0.14690755  0.44940300  0.09727237    -0.11500
C1005       C  0.13890703  0.42361041  0.09146659    -0.01300
C1006       C  0.11709452  0.41306132  0.10591989    -0.10400
C1007       C  0.09539830  0.47036623  0.14936220     0.06100
H1008       H  0.13940443  0.48431138  0.12039494     0.08000
H1009       H  0.16327204  0.45837669  0.08630750     0.11500
H1010       H  0.11075517  0.39307566  0.10259110     0.11800
H1011       H  0.08609478  0.41976375  0.13534755     0.08100
C1012       C  0.06777166  0.47321874  0.14587018    -0.11100
C1013       C  0.05328909  0.49004472  0.16279410    -0.10400
C1014       C  0.06613460  0.50380482  0.18380893    -0.01300
C1015       C  0.09358163  0.50033105  0.18787383    -0.11400
C1016       C  0.10817945  0.48392927  0.17057140    -0.09900
H1017       H  0.05757758  0.46303867  0.12952014     0.08100
H1018       H  0.03211211  0.49255116  0.15935731     0.11800
H1019       H  0.10382254  0.51097099  0.20386844     0.11500
H1020       H  0.12945991  0.48189646  0.17363028     0.08000
C1021       C  0.26615716  0.38529883  0.03051344    -0.11100
C1022       C  0.27525236  0.41112393  0.02747035     0.06100
C1023       C  0.25695394  0.43181219  0.02912727    -0.09800
C1024       C  0.23007693  0.42684609  0.03437151    -0.11500
C1025       C  0.22090487  0.40106475  0.03760819    -0.01300
C1026       C  0.23909340  0.38027637  0.03523385    -0.10400
C1027       C  0.30391108  0.41680447  0.02385713     0.06100
H1028       H  0.26361027  0.45187316  0.02704682     0.08000
H1029       H  0.21638276  0.44317686  0.03589635     0.11500
H1030       H  0.23247277  0.36025333  0.03772538     0.11800
H1031       H  0.28001671  0.36908456  0.02928499     0.08100
C1032       C  0.32242332  0.40796999  0.04321791    -0.11100
C1033       C  0.34917354  0.41540215  0.04135162    -0.10400
C1034       C  0.35799779  0.43148656  0.01981376    -0.01300
C1035       C  0.33952808  0.43956561  0.99992206    -0.11400
C1036       C  0.31267807  0.43249215  0.00208739    -0.09900
H1037       H  0.31598791  0.39605183  0.06030568     0.08100
H1038       H  0.36287882  0.40880587  0.05698572     0.11800
H1039       H  0.34565871  0.45198593  0.98311981     0.11500
H1040       H  0.29865608  0.43948388  0.98693426     0.08000
C1041       C  0.43263645  0.81129783  0.87578938    -0.11100
C1042       C  0.44368071  0.79936062  0.85256408     0.06100
C1043       C  0.44182867  0.77211415  0.84962412    -0.09800
C1044       C  0.42882602  0.75707695  0.86949737    -0.11500
C1045       C  0.41779614  0.76899907  0.89287284    -0.01300
C1046       C  0.41999688  0.79628435  0.89580967    -0.10400
C1047       C  0.45756560  0.81547679  0.83187375     0.06100
H1048       H  0.45015125  0.76254830  0.83178882     0.08000
H1049       H  0.42716739  0.73616157  0.86643584     0.11500
H1050       H  0.41228684  0.80604006  0.91380749     0.11800
H1051       H  0.43424086  0.83225112  0.87867113     0.08100
C1052       C  0.44503215  0.83763276  0.82079101    -0.11100
C1053       C  0.45890405  0.85423418  0.80307963    -0.10400
C1054       C  0.48568837  0.84922399  0.79661920    -0.01300
C1055       C  0.49804592  0.82673117  0.80715608    -0.11400
C1056       C  0.48397743  0.80979495  0.82439967    -0.09900
H1057       H  0.42465053  0.84232157  0.82626701     0.08100
H1058       H  0.44913244  0.87165847  0.79543798     0.11800
H1059       H  0.51876085  0.82265609  0.80253828     0.11500
H1060       H  0.49405542  0.79289846  0.83286401     0.08000
C1061       C  0.30585608  0.78710451  0.96261531    -0.11100
C1062       C  0.30654052  0.78914643  0.99126695     0.06100
C1063       C  0.32623645  0.77528710  0.00571334    -0.09800
C1064       C  0.34565274  0.76087371  0.99169938    -0.11500
C1065       C  0.34580848  0.76015326  0.96299548    -0.01300
C1066       C  0.32532183  0.77283381  0.94863405    -0.10400
C1067       C  0.28827942  0.80742168  0.00574136     0.06100
H1068       H  0.32747874  0.77667346  0.02776037     0.08000
H1069       H  0.36137194  0.75144896  0.00323242     0.11500
H1070       H  0.32478225  0.77224724  0.92650883     0.11800
H1071       H  0.29062351  0.79711447  0.95094584     0.08100
C1072       C  0.28304570  0.83227108  0.99458999    -0.11100
C1073       C  0.26763147  0.85043915  0.00889616    -0.10400
C1074       C  0.25721639  0.84417970  0.03463221    -0.01300
C1075       C  0.26185741  0.81930874  0.04573122    -0.11400
C1076       C  0.27723233  0.80100032  0.03134886    -0.09900
H1077       H  0.29169024  0.83805205  0.97521801     0.08100
H1078       H  0.26450905  0.86972237  0.00027986     0.11800
H1079       H  0.25401009  0.81428822  0.06569107     0.11500
H1080       H  0.28074497  0.78196452  0.04036254     0.08000
C1081       C  0.43275535  0.64613051  0.93518392    -0.11100
C1082       C  0.42904384  0.63536824  0.96135997     0.06100
C1083       C  0.41747751  0.65104979  0.98179266    -0.09800
C1084       C  0.40910087  0.67658113  0.97589285    -0.11500
C1085       C  0.41177714  0.68692607  0.94932400    -0.01300
C1086       C  0.42393156  0.67133184  0.92915208    -0.10400
C1087       C  0.43630171  0.60757132  0.96663632     0.06100
H1088       H  0.41426447  0.64340733  0.00216760     0.08000
H1089       H  0.40043410  0.68811754  0.99218717     0.11500
H1090       H  0.42610157  0.67824267  0.90836380     0.11800
H1091       H  0.44222845  0.63492538  0.91909170     0.08100
C1092       C  0.43270035  0.58882798  0.94594908    -0.11100
C1093       C  0.44061347  0.56299744  0.94982014    -0.10400
C1094       C  0.45191130  0.55498465  0.97466897    -0.01300
C1095       C  0.45453041  0.57328706  0.99592949    -0.11400
C1096       C  0.44695863  0.59943581  0.99188295    -0.09900
H1097       H  0.42369392  0.59407869  0.92661637     0.08100
H1098       H  0.43781194  0.54919710  0.93326190     0.11800
H1099       H  0.46315486  0.56756887  0.01531520     0.11500
H1100       H  0.45007300  0.61335878  0.00824124     0.08000
C1101       C  0.79399234  0.60140145  0.00410802    -0.11100
C1102       C  0.80441007  0.62349704  0.99068588     0.06100
C1103       C  0.79624561  0.62871687  0.96370505    -0.09800
C1104       C  0.77877750  0.61178224  0.95021771    -0.11500
C1105       C  0.76877895  0.58960229  0.96362001    -0.01300
C1106       C  0.77622066  0.58474607  0.99076377    -0.10400
C1107       C  0.82459350  0.64026260  0.00438976     0.06100
H1108       H  0.80348978  0.64579789  0.95293286     0.08000
H1109       H  0.77314215  0.61589841  0.92928763     0.11500
H1110       H  0.76900987  0.56750445  0.00131204     0.11800
H1111       H  0.80021943  0.59645704  0.02464439     0.08100
C1112       C  0.82323248  0.64504793  0.03269649    -0.11100
C1113       C  0.84327001  0.65926562  0.04581309    -0.10400
C1114       C  0.86480158  0.66934123  0.03082193    -0.01300
C1115       C  0.86587093  0.66526384  0.00250645    -0.11400
C1116       C  0.84608228  0.65071197  0.98943834    -0.09900
H1117       H  0.80674227  0.63770858  0.04475706     0.08100
H1118       H  0.84201899  0.66237899  0.06768271     0.11800
H1119       H  0.88251706  0.67261164  0.99065141     0.11500
H1120       H  0.84808572  0.64699028  0.96774989     0.08000
C1121       C  0.77986008  0.52363192  0.84423211    -0.11100
C1122       C  0.78152258  0.49611606  0.84493718     0.06100
C1123       C  0.77127206  0.48292331  0.86792712    -0.09800
C1124       C  0.75965589  0.49676503  0.88947596    -0.11500
C1125       C  0.75835014  0.52417601  0.88885643    -0.01300
C1126       C  0.76860384  0.53751701  0.86607881    -0.10400
C1127       C  0.79474023  0.48116465  0.82245928     0.06100
H1128       H  0.77279645  0.46187297  0.86969265     0.08000
H1129       H  0.75230132  0.48605411  0.90704305     0.11500
H1130       H  0.76769118  0.55866755  0.86510629     0.11800
H1131       H  0.78715319  0.53448713  0.82676651     0.08100
C1132       C  0.78616254  0.45573158  0.81567922    -0.11100
C1133       C  0.80035523  0.44057943  0.79683392    -0.10400
C1134       C  0.82300517  0.45073707  0.78382935    -0.01300
C1135       C  0.83083983  0.47652934  0.78931867    -0.11400
C1136       C  0.81699108  0.49154027  0.80859751    -0.09900
H1137       H  0.76874668  0.44727787  0.82531298     0.08100
H1138       H  0.79400990  0.42069539  0.79280767     0.11800
H1139       H  0.84852162  0.48456004  0.77974620     0.11500
H1140       H  0.82449609  0.51082461  0.81347309     0.08000
C1141       C  0.65440465  0.49888283  0.96675336    -0.11100
C1142       C  0.63548699  0.51715985  0.97586475     0.06100
C1143       C  0.64300502  0.54349646  0.97854328    -0.09800
C1144       C  0.66846879  0.55166073  0.97042377    -0.11500
C1145       C  0.68687202  0.53356498  0.95966894    -0.01300
C1146       C  0.67983592  0.50695927  0.95888735    -0.10400
C1147       C  0.60728502  0.50919888  0.97918553     0.06100
H1148       H  0.62869857  0.55797816  0.98536660     0.08000
H1149       H  0.67324079  0.57229941  0.97126265     0.11500
H1150       H  0.69380194  0.49240146  0.95153909     0.11800
H1151       H  0.64919136  0.47839636  0.96490346     0.08100
C1152       C  0.59503397  0.49475622  0.95832207    -0.11100
C1153       C  0.56806715  0.48851104  0.95983265    -0.10400
C1154       C  0.55261735  0.49633981  0.98239064    -0.01300
C1155       C  0.56498709  0.51022453  0.00373478    -0.11400
C1156       C  0.59209357  0.51683434  0.00200756    -0.09900
H1157       H  0.60618756  0.48894087  0.94033801     0.08100
H1158       H  0.55924600  0.47773270  0.94307076     0.11800
H1159       H  0.55358087  0.51657145  0.02134424     0.11500
H1160       H  0.60116416  0.52797757  0.01836189     0.08000
C1161       C  0.28524953  0.50723244  0.63043006    -0.11100
C1162       C  0.30951418  0.49653170  0.62114413     0.06100
C1163       C  0.31780558  0.50220513  0.59429389    -0.09800
C1164       C  0.30260320  0.51847596  0.57743792    -0.11500
C1165       C  0.27857675  0.52945043  0.58685402    -0.01300
C1166       C  0.26992722  0.52340772  0.61345309    -0.10400
C1167       C  0.32622329  0.47964775  0.63926932     0.06100
H1168       H  0.33598500  0.49386807  0.58611883     0.08000
H1169       H  0.30960697  0.52236349  0.55688386     0.11500
H1170       H  0.25167011  0.53179459  0.62141283     0.11800
H1171       H  0.27835585  0.50363181  0.65106385     0.08100
C1172       C  0.35424546  0.48060215  0.63771956    -0.11100
C1173       C  0.36996734  0.46428389  0.65402627    -0.10400
C1174       C  0.35813191  0.44688221  0.67262138    -0.01300
C1175       C  0.33022492  0.44618740  0.67469226    -0.11400
C1176       C  0.31443101  0.46225684  0.65807479    -0.09900
H1177       H  0.36412038  0.49414508  0.62404393     0.08100
H1178       H  0.39147017  0.46546676  0.65235776     0.11800
H1179       H  0.32063983  0.43280784  0.68877690     0.11500
H1180       H  0.29296848  0.46066529  0.65961536     0.08000
C1181       C  0.46378260  0.37339873  0.64372848    -0.11100
C1182       C  0.46185612  0.34623011  0.64764506     0.06100
C1183       C  0.44552363  0.33666626  0.66877103    -0.09800
C1184       C  0.43043566  0.35385866  0.68480851    -0.11500
C1185       C  0.43105855  0.38087479  0.67969111    -0.01300
C1186       C  0.44832891  0.39055239  0.65944239    -0.10400
C1187       C  0.47479630  0.32796729  0.62811356     0.06100
H1188       H  0.44386407  0.31581775  0.67233461     0.08000
H1189       H  0.41718966  0.34595148  0.70023668     0.11500
H1190       H  0.44921294  0.41133943  0.65523565     0.11800
H1191       H  0.47612975  0.38127760  0.62752366     0.08100
C1192       C  0.45988863  0.30774142  0.61617823    -0.11100
C1193       C  0.47104652  0.29184954  0.59591910    -0.10400
C1194       C  0.49758991  0.29549212  0.58734595    -0.01300
C1195       C  0.51273516  0.31532075  0.59995788    -0.11400
C1196       C  0.50138173  0.33152569  0.61991831    -0.09900
H1197       H  0.43919987  0.30485851  0.62178276     0.08100
H1198       H  0.45851769  0.27723898  0.58639030     0.11800
H1199       H  0.53338450  0.31840948  0.59439856     0.13900
H1200       H  0.51335141  0.34688558  0.62894291     0.08000
C1201       C  0.38211872  0.44508826  0.80538089    -0.11100
C1202       C  0.39408597  0.42645876  0.82252584     0.06100
C1203       C  0.40168769  0.40229874  0.81120646    -0.09800
C1204       C  0.39885680  0.39760987  0.78306430    -0.11500
C1205       C  0.38875119  0.41714681  0.76547013    -0.01300
C1206       C  0.37983953  0.44070217  0.77734752    -0.10400
C1207       C  0.40109695  0.43365157  0.85117986     0.06100
H1208       H  0.41094696  0.38747660  0.82384040     0.08000
H1209       H  0.40524419  0.37887398  0.77513663     0.11500
H1210       H  0.37230278  0.45658840  0.76500139     0.11800
H1211       H  0.37546831  0.46369688  0.81349570     0.08100
C1212       C  0.41093879  0.45884332  0.85653875    -0.11100
C1213       C  0.41893911  0.46596196  0.88271663    -0.10400
C1214       C  0.41756633  0.44810949  0.90452899    -0.01300
C1215       C  0.40724577  0.42296465  0.89952488    -0.11400
C1216       C  0.39919167  0.41574743  0.87301062    -0.09900
H1217       H  0.41328516  0.47298739  0.84023579     0.08100
H1218       H  0.42679398  0.48548976  0.88567683     0.11800
H1219       H  0.40601367  0.40874534  0.91588350     0.11500
H1220       H  0.39158831  0.39620734  0.86956107     0.08000
C1221       C  0.61868766  0.52591942  0.33862393    -0.11100
C1222       C  0.61976796  0.49965057  0.33040491     0.06100
C1223       C  0.60520920  0.49166238  0.30745672    -0.09800
C1224       C  0.58892313  0.50938503  0.29357345    -0.11500
C1225       C  0.58726090  0.53569768  0.30198319    -0.01300
C1226       C  0.60285861  0.54384668  0.32435783    -0.10400
C1227       C  0.63479570  0.48016668  0.34651812     0.06100
H1228       H  0.60558457  0.47140232  0.30096401     0.08000
H1229       H  0.57687044  0.50210290  0.27691003     0.11500
H1230       H  0.60260704  0.56401887  0.33109003     0.11800
H1231       H  0.62999104  0.53249593  0.35617631     0.08100
C1232       C  0.65376530  0.46397533  0.33385630    -0.11100
C1233       C  0.66696853  0.44466360  0.34890279    -0.10400
C1234       C  0.66087361  0.44084985  0.37662175    -0.01300
C1235       C  0.64189086  0.45699380  0.38928416    -0.11400
C1236       C  0.62916283  0.47671974  0.37441035    -0.09900
H1237       H  0.65833042  0.46631718  0.31234712     0.08100
H1238       H  0.68157194  0.43235678  0.33883250     0.11800
H1239       H  0.63704957  0.45438027  0.41069792     0.11500
H1240       H  0.61441053  0.48886163  0.38447102     0.08000
C1241       C  0.47897771  0.63159438  0.32049691    -0.11100
C1242       C  0.49154388  0.64376065  0.34266810     0.06100
C1243       C  0.51843493  0.63844010  0.34796028    -0.09800
C1244       C  0.53267333  0.62122729  0.33120028    -0.11500
C1245       C  0.52009874  0.60846500  0.30918124    -0.01300
C1246       C  0.49301193  0.61391088  0.30407729    -0.10400
C1247       C  0.47627013  0.66112369  0.36095227     0.06100
H1248       H  0.52842252  0.64773454  0.36500625     0.08000
H1249       H  0.55357122  0.61798478  0.33550718     0.11500
H1250       H  0.48239790  0.60407976  0.28780878     0.11800
H1251       H  0.45809287  0.63525362  0.31637489     0.08100
C1252       C  0.46527720  0.68454718  0.35112284    -0.11100
C1253       C  0.44991760  0.70041540  0.36835303    -0.10400
C1254       C  0.44486674  0.69272025  0.39543425    -0.01300
C1255       C  0.45626544  0.66943185  0.40528440    -0.11400
C1256       C  0.47200403  0.65386824  0.38823374    -0.09900
H1257       H  0.46848290  0.69042773  0.33010302     0.08100
H1258       H  0.44124886  0.71822250  0.36029994     0.11800
H1259       H  0.45281553  0.66319981  0.42615585     0.11500
H1260       H  0.48032056  0.63581910  0.39610580     0.08000
C1261       C  0.49635589  0.54948252  0.18967454    -0.11100
C1262       C  0.51456993  0.54225983  0.16920071     0.06100
C1263       C  0.54196127  0.54555141  0.17396450    -0.09800
C1264       C  0.55100765  0.55454850  0.19936038    -0.11500
C1265       C  0.53278735  0.56072583  0.22029249    -0.01300
C1266       C  0.50534688  0.55872159  0.21489010    -0.10400
C1267       C  0.50495598  0.52934738  0.14395179     0.06100
H1268       H  0.55637679  0.54003466  0.15849743     0.08000
H1269       H  0.57225701  0.55609822  0.20286507     0.11500
H1270       H  0.49080739  0.56305719  0.23064140     0.11800
H1271       H  0.47512352  0.54729120  0.18638633     0.08100
C1272       C  0.48728788  0.50816108  0.14593700    -0.11100
C1273       C  0.47807522  0.49556537  0.12248075    -0.10400
C1274       C  0.48606403  0.50402734  0.09637109    -0.01300
C1275       C  0.50387159  0.52524046  0.09436109    -0.11400
C1276       C  0.51340778  0.53764958  0.11797578    -0.09900
H1277       H  0.48076770  0.50117359  0.16575473     0.08100
H1278       H  0.46438156  0.47935058  0.12485223     0.11800
H1279       H  0.51039118  0.53227334  0.07456925     0.11500
H1280       H  0.52702602  0.55397493  0.11597104     0.08000
loop_ 
_geom_bond_atom_site_label_1 
_geom_bond_atom_site_label_2 
_geom_bond_distance 
_geom_bond_site_symmetry_2 
_ccdc_geom_bond_type 
C1            C2   1.405       .  A
C1            C6   1.405       .  A
C1         C1265   1.487       .  S
C2            C3   1.407       .  A
C2            H7   1.083       .  S
C3            C4   1.407       .  A
C3         C1245   1.493       .  S
C4            C5   1.407       .  A
C4            H8   1.082       .  S
C5            C6   1.407       .  A
C5         C1225   1.493       .  S
C6            H9   1.082       .  S
C10          C11   1.414       .  A
C10          C15   1.413       .  A
C10        C1205   1.503       .  S
C11          C12   1.404       .  A
C11          H16   1.081       .  S
C12          C13   1.401       .  A
C12        C1174   1.485       .  S
C13          C14   1.402       .  A
C13          H17   1.084       .  S
C14          C15   1.406       .  A
C14        C1185   1.482       .  S
C15          H18   1.082       .  S
C19          C20   1.405       .  A
C19          C24   1.407       .  A
C19        C1145   1.488       .  S
C20          C21   1.404       .  A
C20          H25   1.084       .  S
C21          C22   1.404       .  A
C21        C1105   1.476       .  S
C22          C23   1.402       .  A
C22          H26   1.084       .  S
C23          C24   1.403       .  A
C23        C1125   1.482       .  S
C24          H27   1.083       .  S
C28          C29   1.409       .  A
C28          C33   1.410       .  A
C28        C1085   1.494       .  S
C29          C30   1.404       .  A
C29          H34   1.082       .  S
C30          C31   1.403       .  A
C30        C1065   1.483       .  S
C31          C32   1.403       .  A
C31          H35   1.083       .  S
C32          C33   1.404       .  A
C32        C1045   1.488       .  S
C33          H36   1.082       .  S
C37          C38   1.405       .  A
C37          C42   1.406       .  A
C37        C1025   1.481       .  S
C38          C39   1.404       .  A
C38          H43   1.083       .  S
C39          C40   1.402       .  A
C39        C1005   1.490       .  S
C40          C41   1.405       .  A
C40          H44   1.082       .  S
C41          C42   1.407       .  A
C41         C985   1.489       .  S
C42          H45   1.083       .  S
C46          C47   1.405       .  A
C46          C51   1.404       .  A
C46         C965   1.479       .  S
C47          C48   1.405       .  A
C47          H52   1.084   1_554  S
C48          C49   1.404       .  A
C48         C945   1.479   1_554  S
C49          C50   1.406       .  A
C49          H53   1.083       .  S
C50          C51   1.405       .  A
C50         C925   1.490       .  S
C51          H54   1.083       .  S
O55         Ni61   1.918       .  S
O55          C76   1.268       .  A
O56         Ni79   1.902       .  S
O56          C65   1.268       .  A
O57         Ni61   1.899       .  S
O57         Ni79   1.904   1_556  S
O57         Ni73   1.907       .  S
O57          H80   0.966       .  S
C58        C1034   1.482       .  S
C58          O75   1.272   1_554  A
C58          O67   1.278       .  A
O59         Ni78   1.937       .  S
O59          C65   1.276       .  A
O60         Ni78   1.909       .  S
O60          C62   1.271       .  A
Ni61         O64   1.913       .  S
Ni61         O66   1.900       .  S
C62         C974   1.485       .  S
C62          O72   1.276       .  A
O63         Ni79   1.930       .  S
O63          C69   1.279   1_554  A
O64          C69   1.276       .  A
C65        C1274   1.485       .  S
O66          C68   1.267       .  A
O67         Ni78   1.941       .  S
C68        C1094   1.478       .  S
C68          O74   1.270   1_556  A
C69        C1154   1.482       .  S
H70          O71   0.967       .  S
O71         Ni79   1.919       .  S
O71         Ni73   1.915   1_554  S
O71         Ni78   1.910       .  S
O72         Ni73   1.941   1_554  S
Ni73         O77   1.929       .  S
Ni73         O75   1.903       .  S
O74         Ni79   1.928       .  S
C76        C1214   1.487       .  S
C76          O77   1.270       .  A
C81          C82   1.412       .  A
C81          C86   1.411       .  A
C81         C905   1.501       .  S
C82          C83   1.404       .  A
C82          H87   1.082       .  S
C83          C84   1.402       .  A
C83         C885   1.482       .  S
C84          C85   1.405       .  A
C84          H88   1.083       .  S
C85          C86   1.408       .  A
C85        C1194   1.495       .  S
C86          H89   1.081       .  S
C90          C91   1.407       .  A
C90          C95   1.409       .  A
C90         C865   1.482       .  S
C91          C92   1.403       .  A
C91          H96   1.084       .  S
C92          C93   1.400       .  A
C92        C1254   1.480       .  S
C93          C94   1.401       .  A
C93          H97   1.084       .  S
C94          C95   1.404       .  A
C94         C845   1.477       .  S
C95          H98   1.084       .  S
C99         C100   1.405       .  A
C99         C104   1.406       .  A
C99         C834   1.488       .  S
C100        C101   1.405       .  A
C100        H105   1.084       .  S
C101        C102   1.404       .  A
C101       C1054   1.478       .  S
C102        C103   1.406       .  A
C102        H106   1.083       .  S
C103        C104   1.407       .  A
C103        C805   1.496       .  S
C104        H107   1.081       .  S
C108        C109   1.404       .  A
C108        C113   1.408       .  A
C108        C785   1.485       .  S
C109        C110   1.402       .  A
C109        H114   1.084       .  S
C110        C111   1.402       .  A
C110        C745   1.477       .  S
C111        C112   1.406       .  A
C111        H115   1.083       .  S
C112        C113   1.407       .  A
C112        C765   1.493       .  S
C113        H116   1.082       .  S
C117        C118   1.411       .  A
C117        C122   1.409       .  A
C117        C725   1.489       .  S
C118        C119   1.405       .  A
C118        H123   1.083       .  S
C119        C120   1.401       .  A
C119        C934   1.483       .  S
C120        C121   1.399       .  A
C120        H124   1.084       .  S
C121        C122   1.404       .  A
C121        C705   1.476       .  S
C122        H125   1.084       .  S
C126        C127   1.406       .  A
C126        C131   1.404       .  A
C126        C694   1.485       .  S
C127        C128   1.403       .  A
C127        H132   1.082       .  S
C128        C129   1.405       .  A
C128        C665   1.492       .  S
C129        C130   1.405       .  A
C129        H133   1.082       .  S
C130        C131   1.405       .  A
C130        C645   1.484       .  S
C131        H134   1.082       .  S
O135       Ni141   1.919   1_565  S
O135        C156   1.270       .  A
O136       Ni159   1.921       .  S
O136        C145   1.271       .  A
O137       Ni141   1.901   1_565  S
O137       Ni159   1.908   1_565  S
O137       Ni153   1.918       .  S
O137        H160   0.968       .  S
C138        C794   1.477       .  S
C138        O155   1.282       .  A
C138        O147   1.277       .  A
O139       Ni158   1.925       .  S
O139        C145   1.272   1_565  A
O140       Ni158   1.912       .  S
O140        C142   1.269       .  A
Ni141       O144   1.919       .  S
Ni141       O146   1.905       .  S
C142        C874   1.483       .  S
C142        O152   1.270       .  A
O143       Ni159   1.914       .  S
O143        C149   1.276       .  A
O144        C149   1.277       .  A
C145        C734   1.486       .  S
O146        C148   1.269       .  A
O147       Ni158   1.910       .  S
C148        C914   1.487       .  S
C148        O154   1.274       .  A
C149        C685   1.479       .  S
H150        O151   0.969       .  S
O151       Ni159   1.909       .  S
O151       Ni153   1.906   1_545  S
O151       Ni158   1.894   1_545  S
O152       Ni153   1.923       .  S
Ni153       O157   1.923       .  S
Ni153       O155   1.935       .  S
O154       Ni159   1.935       .  S
C156        C825   1.485       .  S
C156        O157   1.271       .  A
C161        C162   1.402   1_655  A
C161        C166   1.403       .  A
C161        C634   1.481       .  S
C162        C163   1.406       .  A
C162        H167   1.083       .  S
C163        C164   1.408   1_455  A
C163        C994   1.491       .  S
C164        C165   1.404       .  A
C164        H168   1.083   1_655  S
C165        C166   1.403       .  A
C165        C614   1.477       .  S
C166        H169   1.084       .  S
C170        C171   1.406       .  A
C170        C175   1.406       .  A
C170        C594   1.485       .  S
C171        C172   1.402       .  A
C171        H176   1.083       .  S
C172        C173   1.403       .  A
C172        C714   1.482       .  S
C173        C174   1.402       .  A
C173        H177   1.084       .  S
C174        C175   1.404       .  A
C174       C1074   1.471       .  S
C175        H178   1.084       .  S
C179        C180   1.409       .  A
C179        C184   1.403       .  A
C179        C574   1.484       .  S
C180        C181   1.407       .  A
C180        H185   1.083       .  S
C181        C182   1.405       .  A
C181        C774   1.492       .  S
C182        C183   1.405       .  A
C182        H186   1.080       .  S
C183        C184   1.402       .  A
C183        C545   1.490       .  S
C184        H187   1.082       .  S
C188        C189   1.403       .  A
C188        C193   1.405       .  A
C188        C525   1.484       .  S
C189        C190   1.402       .  A
C189        H194   1.082       .  S
C190        C191   1.404       .  A
C190        C514   1.485       .  S
C191        C192   1.403       .  A
C191        H195   1.083       .  S
C192        C193   1.404       .  A
C192       C1114   1.476       .  S
C193        H196   1.083       .  S
C197        C198   1.407       .  A
C197        C202   1.409       .  A
C197        C485   1.489       .  S
C198        C199   1.400       .  A
C198        H203   1.083       .  S
C199        C200   1.400       .  A
C199        C814   1.479       .  S
C200        C201   1.406       .  A
C200        H204   1.084       .  S
C201        C202   1.408       .  A
C201        C954   1.489       .  S
C202        H205   1.083       .  S
C206        C207   1.403       .  A
C206        C211   1.407       .  A
C206        C474   1.480       .  S
C207        C208   1.396       .  A
C207        H212   1.084       .  S
C208        C209   1.399       .  A
C208        C454   1.470       .  S
C209        C210   1.405       .  A
C209        H213   1.084       .  S
C210        C211   1.406       .  A
C210        C674   1.484       .  S
C211        H214   1.083       .  S
O215       Ni221   1.914   1_554  S
O215        C236   1.268       .  A
O216       Ni239   1.915       .  S
O216        C225   1.269       .  A
O217       Ni221   1.903       .  S
O217       Ni239   1.915   1_565  S
O217       Ni233   1.915       .  S
O217        H240   0.967       .  S
C218        C585   1.477       .  S
C218        O235   1.277       .  A
C218        O227   1.276   1_554  A
O219       Ni238   1.924   1_655  S
O219        C225   1.269       .  A
O220       Ni238   1.894   1_565  S
O220        C222   1.266   1_455  A
Ni221       O224   1.910       .  S
Ni221       O226   1.890   1_556  S
C222        C465   1.476   1_655  S
C222        O232   1.272       .  A
O223       Ni239   1.927       .  S
O223        C229   1.276   1_545  A
O224        C229   1.273       .  A
C225        C625   1.479       .  S
O226        C228   1.266       .  A
O227       Ni238   1.914   1_565  S
C228        C565   1.480       .  S
C228        O234   1.273   1_565  A
C229        C494   1.480   1_565  S
H230        O231   0.965   1_554  S
O231       Ni239   1.913   1_565  S
O231       Ni233   1.909       .  S
O231       Ni238   1.903   1_665  S
O232       Ni233   1.926       .  S
Ni233       O237   1.916       .  S
Ni233       O235   1.924   1_656  S
O234       Ni239   1.935   1_554  S
C236        C534   1.477       .  S
C236        O237   1.268   1_554  A
C241        C242   1.413       .  A
C241        C246   1.411       .  A
C241        C434   1.495       .  S
C242        C243   1.407       .  A
C242        H247   1.083       .  S
C243        C244   1.402       .  A
C243       C1165   1.491       .  S
C244        C245   1.403       .  A
C244        H248   1.084       .  S
C245        C246   1.405       .  A
C245        C854   1.485       .  S
C246        H249   1.083       .  S
C250        C251   1.413       .  A
C250        C255   1.407       .  A
C250        C405   1.493       .  S
C251        C252   1.413       .  A
C251        H256   1.083       .  S
C252        C253   1.407       .  A
C252        C894   1.493       .  S
C253        C254   1.398       .  A
C253        H257   1.084       .  S
C254        C255   1.397       .  A
C254       C1234   1.476       .  S
C255        H258   1.083       .  S
C259        C260   1.404       .  A
C259        C264   1.407       .  A
C259        C394   1.488       .  S
C260        C261   1.399       .  A
C260        H265   1.083       .  S
C261        C262   1.400       .  A
C261        C445   1.473       .  S
C262        C263   1.406       .  A
C262        H266   1.083       .  S
C263        C264   1.407       .  A
C263        C754   1.489       .  S
C264        H267   1.082       .  S
C268        C269   1.405   1_655  A
C268        C273   1.406       .  A
C268        C374   1.479       .  S
C269        C270   1.398       .  A
C269        H274   1.084       .  S
C270        C271   1.397   1_455  A
C270        C654   1.466       .  S
C271        C272   1.405       .  A
C271        H275   1.084       .  S
C272        C273   1.404       .  A
C272        C554   1.484       .  S
C273        H276   1.083       .  S
C277        C278   1.409       .  A
C277        C282   1.407       .  A
C277        C345   1.484       .  S
C278        C279   1.403       .  A
C278        H283   1.084       .  S
C279        C280   1.401       .  A
C279       C1134   1.477       .  S
C280        C281   1.401       .  A
C280        H284   1.084       .  S
C281        C282   1.403       .  A
C281        C605   1.478       .  S
C282        H285   1.084       .  S
C286        C287   1.406       .  A
C286        C291   1.406       .  A
C286        C325   1.482       .  S
C287        C288   1.400       .  A
C287        H292   1.084       .  S
C288        C289   1.399       .  A
C288       C1014   1.474       .  S
C289        C290   1.406       .  A
C289        H293   1.083       .  S
C290        C291   1.405       .  A
C290        C505   1.487       .  S
C291        H294   1.083       .  S
O295       Ni301   1.931   1_655  S
O295        C316   1.273       .  A
O296       Ni319   1.924       .  S
O296        C305   1.272       .  A
O297       Ni301   1.899   1_655  S
O297       Ni319   1.911       .  S
O297       Ni313   1.919       .  S
O297        H320   0.966       .  S
C298        C414   1.482       .  S
C298        O315   1.282       .  A
C298        O307   1.278       .  A
O299       Ni318   1.911       .  S
O299        C305   1.268       .  A
O300       Ni318   1.905       .  S
O300        C302   1.268       .  A
Ni301       O304   1.923       .  S
Ni301       O306   1.903       .  S
C302        C354   1.482       .  S
C302        O312   1.270       .  A
O303       Ni319   1.929   1_455  S
O303        C309   1.278       .  A
O304        C309   1.277       .  A
C305        C385   1.479       .  S
O306        C308   1.269       .  A
O307       Ni318   1.918       .  S
C308        C334   1.482       .  S
C308        O314   1.274   1_455  A
C309        C425   1.479       .  S
H310        O311   0.966       .  S
O311       Ni319   1.919       .  S
O311       Ni313   1.891       .  S
O311       Ni318   1.889       .  S
O312       Ni313   1.923       .  S
Ni313       O317   1.900       .  S
Ni313       O315   1.937       .  S
O314       Ni319   1.928       .  S
C316        C365   1.475       .  S
C316        O317   1.267       .  A
C321        C322   1.404       .  A
C321        C326   1.396       .  A
C321        H331   1.083   1_455  S
C322        C323   1.406       .  A
C322        C327   1.482       .  S
C323        C324   1.397       .  A
C323        H328   1.083       .  S
C324        C325   1.405       .  A
C324        H329   1.083       .  S
C325        C326   1.406       .  A
C326        H330   1.083   1_455  S
C327        C332   1.406       .  A
C327        C336   1.404       .  A
C332        C333   1.398       .  A
C332        H337   1.083   1_455  S
C333        C334   1.406       .  A
C333        H338   1.083   1_455  S
C334        C335   1.407       .  A
C335        C336   1.395       .  A
C335        H339   1.083       .  S
C336        H340   1.083       .  S
C341        C342   1.407       .  A
C341        C346   1.396       .  A
C341        H351   1.083       .  S
C342        C343   1.407       .  A
C342        C347   1.489       .  S
C343        C344   1.400       .  A
C343        H348   1.083       .  S
C344        C345   1.406       .  A
C344        H349   1.083       .  S
C345        C346   1.403       .  A
C346        H350   1.083       .  S
C347        C352   1.405       .  A
C347        C356   1.408       .  A
C352        C353   1.394       .  A
C352        H357   1.083       .  S
C353        C354   1.405       .  A
C353        H358   1.083       .  S
C354        C355   1.406       .  A
C355        C356   1.401       .  A
C355        H359   1.083       .  S
C356        H360   1.083       .  S
C361        C362   1.403       .  A
C361        C366   1.392       .  A
C361        H371   1.083   1_655  S
C362        C363   1.405       .  A
C362        C367   1.477       .  S
C363        C364   1.399       .  A
C363        H368   1.083       .  S
C364        C365   1.406       .  A
C364        H369   1.083       .  S
C365        C366   1.404       .  A
C366        H370   1.083   1_655  S
C367        C372   1.403       .  A
C367        C376   1.404       .  A
C372        C373   1.393       .  A
C372        H377   1.083       .  S
C373        C374   1.404       .  A
C373        H378   1.083       .  S
C374        C375   1.406       .  A
C375        C376   1.398       .  A
C375        H379   1.083       .  S
C376        H380   1.083       .  S
C381        C382   1.401       .  A
C381        C386   1.389       .  A
C381        H391   1.083       .  S
C382        C383   1.408       .  A
C382        C387   1.481       .  S
C383        C384   1.404       .  A
C383        H388   1.083       .  S
C384        C385   1.405       .  A
C384        H389   1.083       .  S
C385        C386   1.407       .  A
C386        H390   1.083       .  S
C387        C392   1.406       .  A
C387        C396   1.402       .  A
C392        C393   1.395       .  A
C392        H397   1.083       .  S
C393        C394   1.405       .  A
C393        H398   1.082       .  S
C394        C395   1.409       .  A
C395        C396   1.397       .  A
C395        H399   1.082       .  S
C396        H400   1.083       .  S
C401        C402   1.406       .  A
C401        C406   1.403       .  A
C401        H411   1.083       .  S
C402        C403   1.403       .  A
C402        C407   1.486       .  S
C403        C404   1.398       .  A
C403        H408   1.083       .  S
C404        C405   1.409       .  A
C404        H409   1.083       .  S
C405        C406   1.407       .  A
C406        H410   1.083       .  S
C407        C412   1.405       .  A
C407        C416   1.406       .  A
C412        C413   1.398       .  A
C412        H417   1.083       .  S
C413        C414   1.406       .  A
C413        H418   1.083       .  S
C414        C415   1.406       .  A
C415        C416   1.403       .  A
C415        H419   1.083       .  S
C416        H420   1.083       .  S
C421        C422   1.408       .  A
C421        C426   1.405       .  A
C421        H431   1.083       .  S
C422        C423   1.404       .  A
C422        C427   1.488       .  S
C423        C424   1.397       .  A
C423        H428   1.083       .  S
C424        C425   1.404       .  A
C424        H429   1.083       .  S
C425        C426   1.405       .  A
C426        H430   1.083       .  S
C427        C432   1.405       .  A
C427        C436   1.405       .  A
C432        C433   1.400       .  A
C432        H437   1.083       .  S
C433        C434   1.409       .  A
C433        H438   1.082       .  S
C434        C435   1.408       .  A
C435        C436   1.400       .  A
C435        H439   1.083       .  S
C436        H440   1.083       .  S
C441        C442   1.409       .  A
C441        C446   1.399       .  A
C441        H451   1.082       .  S
C442        C443   1.407       .  A
C442        C447   1.487       .  S
C443        C444   1.392       .  A
C443        H448   1.082       .  S
C444        C445   1.400       .  A
C444        H449   1.084       .  S
C445        C446   1.402       .  A
C446        H450   1.083       .  S
C447        C452   1.408       .  A
C447        C456   1.409       .  A
C452        C453   1.396       .  A
C452        H457   1.082       .  S
C453        C454   1.401   1_655  A
C453        H458   1.083       .  S
C454        C455   1.399       .  A
C455        C456   1.395   1_455  A
C455        H459   1.083       .  S
C456        H460   1.082   1_655  S
C461        C462   1.407   1_655  A
C461        C466   1.398       .  A
C461        H471   1.083       .  S
C462        C463   1.402       .  A
C462        C467   1.479       .  S
C463        C464   1.391       .  A
C463        H468   1.083       .  S
C464        C465   1.406       .  A
C464        H469   1.083       .  S
C465        C466   1.405   1_455  A
C466        H470   1.083       .  S
C467        C472   1.403       .  A
C467        C476   1.406       .  A
C472        C473   1.395       .  A
C472        H477   1.083       .  S
C473        C474   1.406       .  A
C473        H478   1.083       .  S
C474        C475   1.404       .  A
C475        C476   1.395       .  A
C475        H479   1.083       .  S
C476        H480   1.083       .  S
C481        C482   1.404       .  A
C481        C486   1.392       .  A
C481        H491   1.083   1_545  S
C482        C483   1.404       .  A
C482        C487   1.481       .  S
C483        C484   1.403       .  A
C483        H488   1.083       .  S
C484        C485   1.409       .  A
C484        H489   1.082       .  S
C485        C486   1.405       .  A
C486        H490   1.083   1_545  S
C487        C492   1.401       .  A
C487        C496   1.408       .  A
C492        C493   1.389   1_545  A
C492        H497   1.083   1_545  S
C493        C494   1.405   1_565  A
C493        H498   1.083       .  S
C494        C495   1.406       .  A
C495        C496   1.406       .  A
C495        H499   1.083       .  S
C496        H500   1.083       .  S
C501        C502   1.406   1_455  A
C501        C506   1.392       .  A
C501        H511   1.082       .  S
C502        C503   1.407       .  A
C502        C507   1.488       .  S
C503        C504   1.398       .  A
C503        H508   1.082       .  S
C504        C505   1.407   1_655  A
C504        H509   1.082       .  S
C505        C506   1.405       .  A
C506        H510   1.082       .  S
C507        C512   1.405       .  A
C507        C516   1.408       .  A
C512        C513   1.392       .  A
C512        H517   1.082   1_655  S
C513        C514   1.406       .  A
C513        H518   1.082       .  S
C514        C515   1.405       .  A
C515        C516   1.397       .  A
C515        H519   1.083       .  S
C516        H520   1.082       .  S
C521        C522   1.402       .  A
C521        C526   1.390       .  A
C521        H531   1.083       .  S
C522        C523   1.404       .  A
C522        C527   1.477       .  S
C523        C524   1.401       .  A
C523        H528   1.083   1_554  S
C524        C525   1.408       .  A
C524        H529   1.083   1_554  S
C525        C526   1.405       .  A
C526        H530   1.082       .  S
C527        C532   1.400       .  A
C527        C536   1.407   1_554  A
C532        C533   1.386       .  A
C532        H537   1.084       .  S
C533        C534   1.405       .  A
C533        H538   1.083       .  S
C534        C535   1.406   1_554  A
C535        C536   1.405       .  A
C535        H539   1.083       .  S
C536        H540   1.083       .  S
C541        C542   1.406       .  A
C541        C546   1.395       .  A
C541        H551   1.082       .  S
C542        C543   1.406       .  A
C542        C547   1.488       .  S
C543        C544   1.395       .  A
C543        H548   1.082       .  S
C544        C545   1.407       .  A
C544        H549   1.082       .  S
C545        C546   1.407       .  A
C546        H550   1.082       .  S
C547        C552   1.407       .  A
C547        C556   1.407       .  A
C552        C553   1.392       .  A
C552        H557   1.082       .  S
C553        C554   1.403       .  A
C553        H558   1.083       .  S
C554        C555   1.406       .  A
C555        C556   1.398       .  A
C555        H559   1.082       .  S
C556        H560   1.082       .  S
C561        C562   1.406       .  A
C561        C566   1.401       .  A
C561        H571   1.083       .  S
C562        C563   1.401   1_545  A
C562        C567   1.480       .  S
C563        C564   1.391       .  A
C563        H568   1.083       .  S
C564        C565   1.407       .  A
C564        H569   1.083       .  S
C565        C566   1.406   1_565  A
C566        H570   1.083       .  S
C567        C572   1.402       .  A
C567        C576   1.406       .  A
C572        C573   1.397       .  A
C572        H577   1.083       .  S
C573        C574   1.408       .  A
C573        H578   1.083       .  S
C574        C575   1.403       .  A
C575        C576   1.396       .  A
C575        H579   1.083       .  S
C576        H580   1.083       .  S
C581        C582   1.408       .  A
C581        C586   1.404       .  A
C581        H591   1.083       .  S
C582        C583   1.403       .  A
C582        C587   1.484       .  S
C583        C584   1.390   1_554  A
C583        H588   1.083   1_554  S
C584        C585   1.404   1_556  A
C584        H589   1.083       .  S
C585        C586   1.405       .  A
C586        H590   1.083       .  S
C587        C592   1.404       .  A
C587        C596   1.406       .  A
C592        C593   1.391       .  A
C592        H597   1.083       .  S
C593        C594   1.405       .  A
C593        H598   1.083       .  S
C594        C595   1.407       .  A
C595        C596   1.403       .  A
C595        H599   1.083       .  S
C596        H600   1.083       .  S
C601        C602   1.410       .  A
C601        C606   1.398       .  A
C601        H611   1.082       .  S
C602        C603   1.410       .  A
C602        C607   1.496       .  S
C603        C604   1.398       .  A
C603        H608   1.081       .  S
C604        C605   1.402       .  A
C604        H609   1.083       .  S
C605        C606   1.401       .  A
C606        H610   1.083       .  S
C607        C612   1.411       .  A
C607        C616   1.410       .  A
C612        C613   1.398       .  A
C612        H617   1.082       .  S
C613        C614   1.401       .  A
C613        H618   1.083       .  S
C614        C615   1.401       .  A
C615        C616   1.399       .  A
C615        H619   1.083       .  S
C616        H620   1.082       .  S
C621        C622   1.404       .  A
C621        C626   1.394       .  A
C621        H631   1.083       .  S
C622        C623   1.408       .  A
C622        C627   1.486       .  S
C623        C624   1.402       .  A
C623        H628   1.083       .  S
C624        C625   1.404       .  A
C624        H629   1.083       .  S
C625        C626   1.406       .  A
C626        H630   1.083       .  S
C627        C632   1.405       .  A
C627        C636   1.408       .  A
C632        C633   1.397       .  A
C632        H637   1.083       .  S
C633        C634   1.405       .  A
C633        H638   1.083       .  S
C634        C635   1.403       .  A
C635        C636   1.398       .  A
C635        H639   1.083       .  S
C636        H640   1.083       .  S
C641        C642   1.404       .  A
C641        C646   1.393       .  A
C641        H651   1.083       .  S
C642        C643   1.407       .  A
C642        C647   1.484       .  S
C643        C644   1.399       .  A
C643        H648   1.083       .  S
C644        C645   1.405       .  A
C644        H649   1.083       .  S
C645        C646   1.405       .  A
C646        H650   1.083       .  S
C647        C652   1.408       .  A
C647        C656   1.407       .  A
C652        C653   1.395       .  A
C652        H657   1.083       .  S
C653        C654   1.398       .  A
C653        H658   1.083       .  S
C654        C655   1.401       .  A
C655        C656   1.398       .  A
C655        H659   1.083       .  S
C656        H660   1.083       .  S
C661        C662   1.407       .  A
C661        C666   1.396       .  A
C661        H671   1.082       .  S
C662        C663   1.407   1_565  A
C662        C667   1.492       .  S
C663        C664   1.396       .  A
C663        H668   1.082       .  S
C664        C665   1.407       .  A
C664        H669   1.082       .  S
C665        C666   1.407   1_545  A
C666        H670   1.082       .  S
C667        C672   1.408       .  A
C667        C676   1.408       .  A
C672        C673   1.395       .  A
C672        H677   1.081       .  S
C673        C674   1.404       .  A
C673        H678   1.083       .  S
C674        C675   1.405       .  A
C675        C676   1.397       .  A
C675        H679   1.083       .  S
C676        H680   1.082   1_565  S
C681        C682   1.402       .  A
C681        C686   1.401       .  A
C681        H691   1.083       .  S
C682        C683   1.400       .  A
C682        C687   1.470       .  S
C683        C684   1.390       .  A
C683        H688   1.084       .  S
C684        C685   1.406       .  A
C684        H689   1.083       .  S
C685        C686   1.408       .  A
C686        H690   1.083       .  S
C687        C692   1.402       .  A
C687        C696   1.400       .  A
C692        C693   1.400       .  A
C692        H697   1.083       .  S
C693        C694   1.408       .  A
C693        H698   1.082       .  S
C694        C695   1.406       .  A
C695        C696   1.392       .  A
C695        H699   1.083   1_545  S
C696        H700   1.084   1_545  S
C701        C702   1.411       .  A
C701        C706   1.401   1_565  A
C701        H711   1.082       .  S
C702        C703   1.408       .  A
C702        C707   1.493       .  S
C703        C704   1.396       .  A
C703        H708   1.082       .  S
C704        C705   1.402   1_565  A
C704        H709   1.083       .  S
C705        C706   1.400       .  A
C706        H710   1.083       .  S
C707        C712   1.408       .  A
C707        C716   1.409       .  A
C712        C713   1.399       .  A
C712        H717   1.082       .  S
C713        C714   1.404       .  A
C713        H718   1.083       .  S
C714        C715   1.403       .  A
C715        C716   1.398       .  A
C715        H719   1.083       .  S
C716        H720   1.082       .  S
C721        C722   1.405       .  A
C721        C726   1.405       .  A
C721        H731   1.083       .  S
C722        C723   1.402       .  A
C722        C727   1.481       .  S
C723        C724   1.394       .  A
C723        H728   1.083       .  S
C724        C725   1.405       .  A
C724        H729   1.083       .  S
C725        C726   1.409       .  A
C726        H730   1.083       .  S
C727        C732   1.406       .  A
C727        C736   1.401       .  A
C732        C733   1.408       .  A
C732        H737   1.083       .  S
C733        C734   1.409       .  A
C733        H738   1.083       .  S
C734        C735   1.406       .  A
C735        C736   1.392       .  A
C735        H739   1.083   1_545  S
C736        H740   1.084       .  S
C741        C742   1.403       .  A
C741        C746   1.398       .  A
C741        H751   1.083       .  S
C742        C743   1.403       .  A
C742        C747   1.475       .  S
C743        C744   1.396       .  A
C743        H748   1.083       .  S
C744        C745   1.404       .  A
C744        H749   1.083       .  S
C745        C746   1.405       .  A
C746        H750   1.083       .  S
C747        C752   1.402       .  A
C747        C756   1.402       .  A
C752        C753   1.399       .  A
C752        H757   1.083       .  S
C753        C754   1.409       .  A
C753        H758   1.082       .  S
C754        C755   1.407       .  A
C755        C756   1.395       .  A
C755        H759   1.082       .  S
C756        H760   1.083       .  S
C761        C762   1.407       .  A
C761        C766   1.401       .  A
C761        H771   1.082       .  S
C762        C763   1.406       .  A
C762        C767   1.490       .  S
C763        C764   1.395       .  A
C763        H768   1.082       .  S
C764        C765   1.407       .  A
C764        H769   1.082       .  S
C765        C766   1.408       .  A
C766        H770   1.082       .  S
C767        C772   1.408       .  A
C767        C776   1.405       .  A
C772        C773   1.402       .  A
C772        H777   1.082       .  S
C773        C774   1.407   1_565  A
C773        H778   1.083   1_565  S
C774        C775   1.407       .  A
C775        C776   1.394   1_545  A
C775        H779   1.082       .  S
C776        H780   1.082       .  S
C781        C782   1.406       .  A
C781        C786   1.393       .  A
C781        H791   1.083       .  S
C782        C783   1.405       .  A
C782        C787   1.485       .  S
C783        C784   1.401       .  A
C783        H788   1.083       .  S
C784        C785   1.408       .  A
C784        H789   1.083       .  S
C785        C786   1.403       .  A
C786        H790   1.083       .  S
C787        C792   1.403       .  A
C787        C796   1.408       .  A
C792        C793   1.391       .  A
C792        H797   1.083       .  S
C793        C794   1.405       .  A
C793        H798   1.083   1_565  S
C794        C795   1.404       .  A
C795        C796   1.403       .  A
C795        H799   1.083       .  S
C796        H800   1.083       .  S
C801        C802   1.401       .  A
C801        C806   1.397       .  A
C801        H811   1.083       .  S
C802        C803   1.401       .  A
C802        C807   1.476       .  S
C803        C804   1.398       .  A
C803        H808   1.083       .  S
C804        C805   1.411       .  A
C804        H809   1.081       .  S
C805        C806   1.410       .  A
C806        H810   1.082       .  S
C807        C812   1.403       .  A
C807        C816   1.404       .  A
C812        C813   1.399       .  A
C812        H817   1.083       .  S
C813        C814   1.405   1_565  A
C813        H818   1.083       .  S
C814        C815   1.403       .  A
C815        C816   1.397   1_545  A
C815        H819   1.083       .  S
C816        H820   1.083   1_565  S
C821        C822   1.409       .  A
C821        C826   1.406       .  A
C821        H831   1.083       .  S
C822        C823   1.404       .  A
C822        C827   1.489       .  S
C823        C824   1.393       .  A
C823        H828   1.083       .  S
C824        C825   1.406       .  A
C824        H829   1.083       .  S
C825        C826   1.407       .  A
C826        H830   1.083       .  S
C827        C832   1.407       .  A
C827        C836   1.406       .  A
C832        C833   1.404       .  A
C832        H837   1.083       .  S
C833        C834   1.407       .  A
C833        H838   1.083       .  S
C834        C835   1.405       .  A
C835        C836   1.394       .  A
C835        H839   1.083       .  S
C836        H840   1.083       .  S
C841        C842   1.408       .  A
C841        C846   1.404       .  A
C841        H851   1.083       .  S
C842        C843   1.405       .  A
C842        C847   1.486       .  S
C843        C844   1.393       .  A
C843        H848   1.083       .  S
C844        C845   1.401       .  A
C844        H849   1.084       .  S
C845        C846   1.404       .  A
C846        H850   1.083       .  S
C847        C852   1.406       .  A
C847        C856   1.405       .  A
C852        C853   1.403       .  A
C852        H857   1.083       .  S
C853        C854   1.406       .  A
C853        H858   1.083       .  S
C854        C855   1.404       .  A
C855        C856   1.394       .  A
C855        H859   1.083       .  S
C856        H860   1.083       .  S
C861        C862   1.410       .  A
C861        C866   1.400       .  A
C861        H871   1.082       .  S
C862        C863   1.409       .  A
C862        C867   1.496       .  S
C863        C864   1.398       .  A
C863        H868   1.082       .  S
C864        C865   1.402       .  A
C864        H869   1.083       .  S
C865        C866   1.403       .  A
C866        H870   1.083       .  S
C867        C872   1.409       .  A
C867        C876   1.409       .  A
C872        C873   1.400       .  A
C872        H877   1.082       .  S
C873        C874   1.405       .  A
C873        H878   1.083       .  S
C874        C875   1.405       .  A
C875        C876   1.398       .  A
C875        H879   1.083       .  S
C876        H880   1.082       .  S
C881        C882   1.404       .  A
C881        C886   1.402       .  A
C881        H891   1.083       .  S
C882        C883   1.405       .  A
C882        C887   1.481       .  S
C883        C884   1.398       .  A
C883        H888   1.083       .  S
C884        C885   1.404       .  A
C884        H889   1.083       .  S
C885        C886   1.405       .  A
C886        H890   1.083       .  S
C887        C892   1.405       .  A
C887        C896   1.401       .  A
C892        C893   1.403       .  A
C892        H897   1.083       .  S
C893        C894   1.408       .  A
C893        H898   1.083       .  S
C894        C895   1.409       .  A
C895        C896   1.397       .  A
C895        H899   1.083       .  S
C896        H900   1.083       .  S
C901        C902   1.403       .  A
C901        C906   1.402       .  A
C901        H911   1.083       .  S
C902        C903   1.402       .  A
C902        C907   1.483       .  S
C903        C904   1.398       .  A
C903        H908   1.083       .  S
C904        C905   1.411       .  A
C904        H909   1.082       .  S
C905        C906   1.411       .  A
C906        H910   1.081       .  S
C907        C912   1.405       .  A
C907        C916   1.403       .  A
C912        C913   1.402       .  A
C912        H917   1.083       .  S
C913        C914   1.407       .  A
C913        H918   1.083       .  S
C914        C915   1.408       .  A
C915        C916   1.398       .  A
C915        H919   1.083       .  S
C916        H920   1.083       .  S
C921        C922   1.403       .  A
C921        C926   1.397       .  A
C921        H931   1.083       .  S
C922        C923   1.403       .  A
C922        C927   1.480       .  S
C923        C924   1.399       .  A
C923        H928   1.083       .  S
C924        C925   1.408       .  A
C924        H929   1.082       .  S
C925        C926   1.408       .  A
C926        H930   1.082       .  S
C927        C932   1.403       .  A
C927        C936   1.405       .  A
C932        C933   1.396       .  A
C932        H937   1.083       .  S
C933        C934   1.406       .  A
C933        H938   1.083       .  S
C934        C935   1.405       .  A
C935        C936   1.401       .  A
C935        H939   1.083       .  S
C936        H940   1.083       .  S
C941        C942   1.406       .  A
C941        C946   1.401       .  A
C941        H951   1.083       .  S
C942        C943   1.405       .  A
C942        C947   1.482       .  S
C943        C944   1.396       .  A
C943        H948   1.083       .  S
C944        C945   1.403       .  A
C944        H949   1.083       .  S
C945        C946   1.404       .  A
C946        H950   1.083   1_556  S
C947        C952   1.403       .  A
C947        C956   1.405       .  A
C952        C953   1.397       .  A
C952        H957   1.083       .  S
C953        C954   1.407       .  A
C953        H958   1.083       .  S
C954        C955   1.407       .  A
C955        C956   1.400       .  A
C955        H959   1.083       .  S
C956        H960   1.083       .  S
C961        C962   1.407       .  A
C961        C966   1.403       .  A
C961        H971   1.083       .  S
C962        C963   1.405       .  A
C962        C967   1.486       .  S
C963        C964   1.396       .  A
C963        H968   1.083       .  S
C964        C965   1.402       .  A
C964        H969   1.083       .  S
C965        C966   1.404       .  A
C966        H970   1.083       .  S
C967        C972   1.405       .  A
C967        C976   1.405   1_554  A
C972        C973   1.401       .  A
C972        H977   1.083       .  S
C973        C974   1.408       .  A
C973        H978   1.083       .  S
C974        C975   1.406   1_554  A
C975        C976   1.397       .  A
C975        H979   1.083       .  S
C976        H980   1.083       .  S
C981        C982   1.408   1_554  A
C981        C986   1.392       .  A
C981        H991   1.081       .  S
C982        C983   1.410       .  A
C982        C987   1.496       .  S
C983        C984   1.402       .  A
C983        H988   1.082       .  S
C984        C985   1.406   1_556  A
C984        H989   1.082       .  S
C985        C986   1.405       .  A
C986        H990   1.083       .  S
C987        C992   1.408       .  A
C987        C996   1.409       .  A
C992        C993   1.394       .  A
C992        H997   1.081   1_556  S
C993        C994   1.406       .  A
C993        H998   1.082       .  S
C994        C995   1.406       .  A
C995        C996   1.400       .  A
C995        H999   1.082       .  S
C996       H1000   1.081       .  S
C1001      C1002   1.401       .  A
C1001      C1006   1.396       .  A
C1001      H1011   1.083       .  S
C1002      C1003   1.403       .  A
C1002      C1007   1.476       .  S
C1003      C1004   1.398       .  A
C1003      H1008   1.083       .  S
C1004      C1005   1.407       .  A
C1004      H1009   1.082       .  S
C1005      C1006   1.409       .  A
C1006      H1010   1.082       .  S
C1007      C1012   1.404       .  A
C1007      C1016   1.404       .  A
C1012      C1013   1.397       .  A
C1012      H1017   1.083       .  S
C1013      C1014   1.403       .  A
C1013      H1018   1.083       .  S
C1014      C1015   1.403       .  A
C1015      C1016   1.397       .  A
C1015      H1019   1.083       .  S
C1016      H1020   1.083       .  S
C1021      C1022   1.405       .  A
C1021      C1026   1.401       .  A
C1021      H1031   1.083       .  S
C1022      C1023   1.402       .  A
C1022      C1027   1.477       .  S
C1023      C1024   1.395       .  A
C1023      H1028   1.083       .  S
C1024      C1025   1.405       .  A
C1024      H1029   1.083       .  S
C1025      C1026   1.405       .  A
C1026      H1030   1.083       .  S
C1027      C1032   1.402       .  A
C1027      C1036   1.403       .  A
C1032      C1033   1.398       .  A
C1032      H1037   1.083       .  S
C1033      C1034   1.407       .  A
C1033      H1038   1.083       .  S
C1034      C1035   1.407   1_554  A
C1035      C1036   1.399   1_556  A
C1035      H1039   1.083       .  S
C1036      H1040   1.083   1_554  S
C1041      C1042   1.403       .  A
C1041      C1046   1.396       .  A
C1041      H1051   1.083       .  S
C1042      C1043   1.403       .  A
C1042      C1047   1.479       .  S
C1043      C1044   1.400       .  A
C1043      H1048   1.083       .  S
C1044      C1045   1.408       .  A
C1044      H1049   1.083       .  S
C1045      C1046   1.406       .  A
C1046      H1050   1.083       .  S
C1047      C1052   1.404       .  A
C1047      C1056   1.404       .  A
C1052      C1053   1.398       .  A
C1052      H1057   1.083       .  S
C1053      C1054   1.403       .  A
C1053      H1058   1.083       .  S
C1054      C1055   1.404       .  A
C1055      C1056   1.399       .  A
C1055      H1059   1.083       .  S
C1056      H1060   1.083       .  S
C1061      C1062   1.406       .  A
C1061      C1066   1.397       .  A
C1061      H1071   1.083       .  S
C1062      C1063   1.407   1_556  A
C1062      C1067   1.487   1_556  S
C1063      C1064   1.399   1_554  A
C1063      H1068   1.083       .  S
C1064      C1065   1.405       .  A
C1064      H1069   1.083   1_556  S
C1065      C1066   1.404       .  A
C1066      H1070   1.083       .  S
C1067      C1072   1.407   1_554  A
C1067      C1076   1.408       .  A
C1072      C1073   1.396   1_556  A
C1072      H1077   1.083       .  S
C1073      C1074   1.399       .  A
C1073      H1078   1.083       .  S
C1074      C1075   1.402       .  A
C1075      C1076   1.401       .  A
C1075      H1079   1.083       .  S
C1076      H1080   1.083       .  S
C1081      C1082   1.406       .  A
C1081      C1086   1.394       .  A
C1081      H1091   1.083       .  S
C1082      C1083   1.406       .  A
C1082      C1087   1.489       .  S
C1083      C1084   1.401       .  A
C1083      H1088   1.082   1_556  S
C1084      C1085   1.409       .  A
C1084      H1089   1.082       .  S
C1085      C1086   1.407       .  A
C1086      H1090   1.082       .  S
C1087      C1092   1.405       .  A
C1087      C1096   1.409       .  A
C1092      C1093   1.392       .  A
C1092      H1097   1.083       .  S
C1093      C1094   1.403       .  A
C1093      H1098   1.083       .  S
C1094      C1095   1.405       .  A
C1095      C1096   1.403       .  A
C1095      H1099   1.083   1_556  S
C1096      H1100   1.082   1_556  S
C1101      C1102   1.407   1_554  A
C1101      C1106   1.396   1_554  A
C1101      H1111   1.082       .  S
C1102      C1103   1.408       .  A
C1102      C1107   1.487   1_556  S
C1103      C1104   1.398       .  A
C1103      H1108   1.083       .  S
C1104      C1105   1.402       .  A
C1104      H1109   1.083       .  S
C1105      C1106   1.402       .  A
C1106      H1110   1.083   1_556  S
C1107      C1112   1.408       .  A
C1107      C1116   1.407   1_554  A
C1112      C1113   1.397       .  A
C1112      H1117   1.083       .  S
C1113      C1114   1.403       .  A
C1113      H1118   1.083       .  S
C1114      C1115   1.402       .  A
C1115      C1116   1.396   1_554  A
C1115      H1119   1.083   1_554  S
C1116      H1120   1.082       .  S
C1121      C1122   1.409       .  A
C1121      C1126   1.401       .  A
C1121      H1131   1.082       .  S
C1122      C1123   1.408       .  A
C1122      C1127   1.493       .  S
C1123      C1124   1.396       .  A
C1123      H1128   1.082       .  S
C1124      C1125   1.403       .  A
C1124      H1129   1.083       .  S
C1125      C1126   1.404       .  A
C1126      H1130   1.083       .  S
C1127      C1132   1.409       .  A
C1127      C1136   1.409       .  A
C1132      C1133   1.398       .  A
C1132      H1137   1.082       .  S
C1133      C1134   1.401       .  A
C1133      H1138   1.083       .  S
C1134      C1135   1.402       .  A
C1135      C1136   1.399       .  A
C1135      H1139   1.083       .  S
C1136      H1140   1.082       .  S
C1141      C1142   1.403       .  A
C1141      C1146   1.395       .  A
C1141      H1151   1.083       .  S
C1142      C1143   1.404       .  A
C1142      C1147   1.481       .  S
C1143      C1144   1.401       .  A
C1143      H1148   1.083       .  S
C1144      C1145   1.408       .  A
C1144      H1149   1.083       .  S
C1145      C1146   1.406       .  A
C1146      H1150   1.083       .  S
C1147      C1152   1.402       .  A
C1147      C1156   1.406   1_556  A
C1152      C1153   1.392       .  A
C1152      H1157   1.083       .  S
C1153      C1154   1.405       .  A
C1153      H1158   1.083       .  S
C1154      C1155   1.408   1_556  A
C1155      C1156   1.404       .  A
C1155      H1159   1.083       .  S
C1156      H1160   1.083       .  S
C1161      C1162   1.409       .  A
C1161      C1166   1.402       .  A
C1161      H1171   1.082       .  S
C1162      C1163   1.407       .  A
C1162      C1167   1.495       .  S
C1163      C1164   1.398       .  A
C1163      H1168   1.082       .  S
C1164      C1165   1.406       .  A
C1164      H1169   1.083       .  S
C1165      C1166   1.405       .  A
C1166      H1170   1.083       .  S
C1167      C1172   1.408       .  A
C1167      C1176   1.409       .  A
C1172      C1173   1.398       .  A
C1172      H1177   1.082       .  S
C1173      C1174   1.404       .  A
C1173      H1178   1.083       .  S
C1174      C1175   1.404       .  A
C1175      C1176   1.402       .  A
C1175      H1179   1.083       .  S
C1176      H1180   1.082       .  S
C1181      C1182   1.405       .  A
C1181      C1186   1.399       .  A
C1181      H1191   1.083       .  S
C1182      C1183   1.406       .  A
C1182      C1187   1.484       .  S
C1183      C1184   1.399       .  A
C1183      H1188   1.083       .  S
C1184      C1185   1.404       .  A
C1184      H1189   1.083       .  S
C1185      C1186   1.405       .  A
C1186      H1190   1.083       .  S
C1187      C1192   1.404       .  A
C1187      C1196   1.404       .  A
C1192      C1193   1.397       .  A
C1192      H1197   1.083       .  S
C1193      C1194   1.408       .  A
C1193      H1198   1.082       .  S
C1194      C1195   1.410       .  A
C1195      C1196   1.401       .  A
C1195      H1199   1.082       .  S
C1196      H1200   1.083       .  S
C1201      C1202   1.404       .  A
C1201      C1206   1.394       .  A
C1201      H1211   1.083       .  S
C1202      C1203   1.406       .  A
C1202      C1207   1.492       .  S
C1203      C1204   1.405       .  A
C1203      H1208   1.083       .  S
C1204      C1205   1.413       .  A
C1204      H1209   1.081       .  S
C1205      C1206   1.409       .  A
C1206      H1210   1.081       .  S
C1207      C1212   1.404       .  A
C1207      C1216   1.410       .  A
C1212      C1213   1.391       .  A
C1212      H1217   1.083       .  S
C1213      C1214   1.406       .  A
C1213      H1218   1.083       .  S
C1214      C1215   1.407       .  A
C1215      C1216   1.408       .  A
C1215      H1219   1.083       .  S
C1216      H1220   1.083       .  S
C1221      C1222   1.403       .  A
C1221      C1226   1.399       .  A
C1221      H1231   1.083       .  S
C1222      C1223   1.401       .  A
C1222      C1227   1.477       .  S
C1223      C1224   1.397       .  A
C1223      H1228   1.083       .  S
C1224      C1225   1.409       .  A
C1224      H1229   1.082       .  S
C1225      C1226   1.409       .  A
C1226      H1230   1.082       .  S
C1227      C1232   1.404       .  A
C1227      C1236   1.404       .  A
C1232      C1233   1.399       .  A
C1232      H1237   1.083       .  S
C1233      C1234   1.403       .  A
C1233      H1238   1.083       .  S
C1234      C1235   1.403       .  A
C1235      C1236   1.398       .  A
C1235      H1239   1.083       .  S
C1236      H1240   1.083       .  S
C1241      C1242   1.401       .  A
C1241      C1246   1.398       .  A
C1241      H1251   1.083       .  S
C1242      C1243   1.400       .  A
C1242      C1247   1.474       .  S
C1243      C1244   1.398       .  A
C1243      H1248   1.083       .  S
C1244      C1245   1.409       .  A
C1244      H1249   1.082       .  S
C1245      C1246   1.410       .  A
C1246      H1250   1.082       .  S
C1247      C1252   1.403       .  A
C1247      C1256   1.401       .  A
C1252      C1253   1.400       .  A
C1252      H1257   1.083       .  S
C1253      C1254   1.405       .  A
C1253      H1258   1.083       .  S
C1254      C1255   1.406       .  A
C1255      C1256   1.396       .  A
C1255      H1259   1.083       .  S
C1256      H1260   1.083       .  S
C1261      C1262   1.404       .  A
C1261      C1266   1.396       .  A
C1261      H1271   1.083       .  S
C1262      C1263   1.404       .  A
C1262      C1267   1.482       .  S
C1263      C1264   1.401       .  A
C1263      H1268   1.083       .  S
C1264      C1265   1.407       .  A
C1264      H1269   1.083       .  S
C1265      C1266   1.406       .  A
C1266      H1270   1.083       .  S
C1267      C1272   1.403       .  A
C1267      C1276   1.405       .  A
C1272      C1273   1.395       .  A
C1272      H1277   1.083       .  S
C1273      C1274   1.406       .  A
C1273      H1278   1.083       .  S
C1274      C1275   1.409       .  A
C1275      C1276   1.403       .  A
C1275      H1279   1.083       .  S
C1276      H1280   1.083       .  S
