geometry optimzed in LAMMPS
_audit_creation_date              2020-12-01 
_audit_creation_method            'lammps2cif' 
_symmetry_space_group_name_H-M    'P1' 
_symmetry_Int_Tables_number       1 
_symmetry_cell_setting            triclinic 
loop_ 
_symmetry_equiv_pos_as_xyz 
  x,y,z 
_cell_length_a                    43.39863322 
_cell_length_b                    43.24503384814306 
_cell_length_c                    71.57399587736698 
_cell_angle_alpha                 89.61549692518619 
_cell_angle_beta                  90.42238585678793 
_cell_angle_gamma                 119.70531367181978 
loop_ 
_atom_site_label 
_atom_site_type_symbol 
_atom_site_fract_x 
_atom_site_fract_y 
_atom_site_fract_z 
_atom_site_charge 
C1          C  0.33371199  0.16333570  0.56914227     0.46600
H2          H  0.33452495  0.16421648  0.58462008    -0.02500
C3          C  0.33538706  0.16427700  0.53290661     0.46600
H4          H  0.33612178  0.16470563  0.51738217    -0.02500
C5          C  0.37115986  0.18302670  0.56117632    -0.16100
C6          C  0.31680156  0.12603739  0.56060826    -0.15900
C7          C  0.31431270  0.18132908  0.56031221    -0.16300
C8          C  0.37243256  0.18387260  0.54200348    -0.16300
C9          C  0.31744131  0.12632534  0.54135935    -0.15800
C10         C  0.31530802  0.18205666  0.54109826    -0.16100
C11         C  0.16592085  0.33068250  0.49327646     0.46600
H12         H  0.16648431  0.33127071  0.50880625    -0.02500
C13         C  0.16454909  0.32920375  0.45696321     0.46600
H14         H  0.16346269  0.32806109  0.44149945    -0.02500
C15         C  0.18572406  0.31287251  0.48490965    -0.16100
C16         C  0.12826179  0.30985106  0.48513486    -0.15900
C17         C  0.18242089  0.36782295  0.48420825    -0.16300
C18         C  0.18469392  0.31170158  0.46568719    -0.16300
C19         C  0.12754641  0.30894537  0.46593021    -0.15800
C20         C  0.18156314  0.36711011  0.46497643    -0.16100
Zn21       Zn  0.18252985  0.30032043  0.68497862     1.49700
Zn22       Zn  0.16932153  0.33453800  0.64908443     1.49400
Zn23       Zn  0.11697900  0.31641561  0.68350426     1.49100
Zn24       Zn  0.19688535  0.38048725  0.68633772     1.49500
O25         O  0.16630948  0.33288142  0.67615212    -1.83000
O26         O  0.19717378  0.27912360  0.66388207    -0.73600
O27         O  0.12276262  0.32044957  0.63723387    -0.73500
O28         O  0.09795298  0.27072660  0.69821970    -0.73000
O29         O  0.18580728  0.30257535  0.63893266    -0.73700
O30         O  0.14333325  0.26032259  0.69922376    -0.73300
O31         O  0.08529153  0.30743391  0.66083440    -0.73800
O32         O  0.16892022  0.39746977  0.70124038    -0.73200
O33         O  0.20275034  0.38326298  0.64002953    -0.74000
O34         O  0.11339053  0.35277766  0.69970548    -0.73400
O35         O  0.22113834  0.41620813  0.66574146    -0.73800
O36         O  0.23430835  0.38084526  0.70328914    -0.73800
O37         O  0.22441318  0.32526951  0.70233427    -0.73500
C38         C  0.19646873  0.28272644  0.64623280     0.78200
C39         C  0.09187728  0.31040807  0.64338246     0.78700
C40         C  0.11161941  0.25191427  0.70338856     0.77700
C41         C  0.13626067  0.38372986  0.70536189     0.78100
C42         C  0.22080768  0.41307410  0.64805552     0.79200
C43         C  0.24190200  0.35706716  0.70830350     0.78300
C44         C  0.99900502  0.00064819  0.78711252     0.46600
H45         H  0.99771513  0.00036881  0.77164169    -0.02500
C46         C  0.00075244  0.00089329  0.82340145     0.46600
H47         H  0.00154099  0.00094483  0.83893055    -0.02500
C48         C  0.46305422  0.48686977  0.79591267    -0.16100
C49         C  0.01777167  0.48113244  0.79629839    -0.15900
C50         C  0.02072445  0.03803758  0.79551066    -0.16300
C51         C  0.46168422  0.48565063  0.81515615    -0.16300
C52         C  0.01783440  0.48180446  0.81551015    -0.15800
C53         C  0.02137853  0.03839498  0.81473813    -0.16100
C54         C  0.16501715  0.33301184  0.86366811     0.46600
H55         H  0.16322266  0.33230172  0.84816291    -0.02500
C56         C  0.16917066  0.33483593  0.89997339     0.46600
H57         H  0.17113482  0.33580639  0.91543450    -0.02500
C58         C  0.14245842  0.34703424  0.87290195    -0.16100
C59         C  0.15232266  0.29618037  0.87266041    -0.15900
C60         C  0.20298672  0.35699046  0.87114355    -0.16300
C61         C  0.14446200  0.34779002  0.89211125    -0.16300
C62         C  0.15519351  0.29736913  0.89184725    -0.15800
C63         C  0.20492632  0.35798172  0.89034551    -0.16100
C64         C  0.33543471  0.16876796  0.12107221     0.46600
H65         H  0.33778456  0.16802538  0.10567630    -0.02500
C66         C  0.33055525  0.17108290  0.15710554     0.46600
H67         H  0.32854552  0.17203219  0.17254510    -0.02500
C68         C  0.29732800  0.15254772  0.12783502    -0.16100
C69         C  0.35112291  0.14886809  0.13168186    -0.15900
C70         C  0.35464308  0.20671434  0.12900894    -0.16300
C71         C  0.29435792  0.15371967  0.14693405    -0.16300
C72         C  0.34875523  0.15016917  0.15077472    -0.15800
C73         C  0.35219438  0.20794873  0.14809825    -0.16100
C74         C  0.50123925  0.50393808  0.19785019     0.46600
H75         H  0.50113984  0.50531231  0.18233485    -0.02500
C76         C  0.50132844  0.50052073  0.23412014     0.46600
H77         H  0.50033366  0.49841196  0.24957215    -0.02500
C78         C  0.47931339  0.02110726  0.20689679    -0.16100
C79         C  0.48126640  0.46579052  0.20541472    -0.15900
C80         C  0.03975631  0.02147588  0.20631747    -0.16300
C81         C  0.47985414  0.01886965  0.22605285    -0.16300
C82         C  0.48113560  0.46393496  0.22458822    -0.15800
C83         C  0.03966899  0.01993738  0.22557260    -0.16100
Zn84       Zn  0.36166902  0.14344060  0.35365063     1.49700
Zn85       Zn  0.28445167  0.13848629  0.35491680     1.49400
Zn86       Zn  0.35565718  0.21362836  0.35564257     1.49100
Zn87       Zn  0.33549460  0.16992965  0.31834670     1.49500
O88         O  0.33385436  0.16581503  0.34564080    -1.83000
O89         O  0.33143064  0.09994268  0.36902903    -0.73600
O90         O  0.27155427  0.16929377  0.37153723    -0.73500
O91         O  0.39887527  0.22550094  0.37035767    -0.73000
O92         O  0.27807042  0.09546595  0.37014407    -0.73700
O93         O  0.40413011  0.17700087  0.36942749    -0.73300
O94         O  0.32308508  0.21982338  0.37226139    -0.73800
O95         O  0.35743076  0.22102674  0.30926709    -0.73200
O96         O  0.25047114  0.12038068  0.33266222    -0.74000
O97         O  0.37042817  0.25091017  0.33588860    -0.73400
O98         O  0.28611061  0.14208409  0.30797317    -0.73800
O99         O  0.36468718  0.15023871  0.30730186    -0.73800
O100        O  0.38024118  0.12851399  0.33155068    -0.73500
C101        C  0.29930067  0.08400821  0.37440212     0.78200
C102        C  0.29093518  0.20130601  0.37713935     0.78700
C103        C  0.41513686  0.20889309  0.37469435     0.77700
C104        C  0.37018022  0.25023673  0.31817884     0.78100
C105        C  0.25530554  0.12401711  0.31501045     0.79200
C106        C  0.38012974  0.13419025  0.31406206     0.78300
Zn107      Zn  0.05251564  0.03151597  0.00433703     1.49700
Zn108      Zn  0.49510722  0.00320267  0.03925968     1.49400
Zn109      Zn  0.47313626  0.02069123  0.99999134     1.49100
Zn110      Zn  0.48565649  0.45363321  0.00237809     1.49500
O111        O  0.50135589  0.00258285  0.01230184    -1.83000
O112        O  0.08407377  0.05431272  0.02689724    -0.73600
O113        O  0.46430548  0.02393988  0.04591575    -0.73500
O114        O  0.00398610  0.06318414  0.98414165    -0.73000
O115        O  0.04596128  0.03376597  0.05049620    -0.73700
O116        O  0.05853708  0.07125579  0.98717126    -0.73300
O117        O  0.44990842  0.03739840  0.01845290    -0.73800
O118        O  0.44361827  0.43660706  0.98484390    -0.73200
O119        O  0.47510278  0.45466636  0.04835575    -0.74000
O120        O  0.43549201  0.48330357  0.98234947    -0.73400
O121        O  0.46943001  0.41971258  0.02438916    -0.73800
O122        O  0.02063139  0.44794830  0.98874467    -0.73800
O123        O  0.06728591  0.50258398  0.98997552    -0.73500
C124        C  0.07726237  0.05257342  0.04428925     0.78200
C125        C  0.44864888  0.03679222  0.03618630     0.78700
C126        C  0.03694888  0.08041109  0.98047216     0.77700
C127        C  0.42672783  0.45136509  0.97827950     0.78100
C128        C  0.46605872  0.42417746  0.04168340     0.79200
C129        C  0.05268133  0.47030549  0.98462282     0.78300
C130        C  0.16094291  0.07500446  0.29400229     0.19800
C131        C  0.16359432  0.06348156  0.27603719    -0.18300
C132        C  0.13541481  0.05187220  0.26330523    -0.10600
C133        C  0.10388664  0.05146279  0.26830581     0.22100
C134        C  0.10098986  0.06182732  0.28649209    -0.19900
C135        C  0.12906756  0.07322923  0.29921572    -0.10700
C136        C  0.07332237  0.04078570  0.25530073    -0.14900
C137        C  0.07177915  0.03054234  0.23740825    -0.28800
C138        C  0.19100573  0.08946553  0.30750152    -0.03000
C139        C  0.22499604  0.10726391  0.30193772    -0.39600
H140        H  0.18735685  0.06326227  0.27177813     0.13200
H141        H  0.13883074  0.04356271  0.24965459     0.12800
H142        H  0.07696806  0.06149090  0.29085029     0.12300
H143        H  0.12620121  0.08158326  0.31302324     0.12500
H144        H  0.05104038  0.04241434  0.26084365     0.15300
H145        H  0.09405545  0.02988692  0.23116117     0.14000
H146        H  0.18500598  0.08766067  0.32231813     0.11700
H147        H  0.23111265  0.11105484  0.28713413     0.13700
C148        C  0.41301772  0.32308842  0.28034721     0.19800
C149        C  0.41029918  0.32445972  0.26086099    -0.18300
C150        C  0.42860071  0.35682749  0.25129149    -0.10600
C151        C  0.45012016  0.38862000  0.26107981     0.22100
C152        C  0.45370565  0.38713768  0.28047518    -0.19900
C153        C  0.43537029  0.35479190  0.29005041    -0.10700
C154        C  0.47037309  0.42337539  0.25137747    -0.14900
C155        C  0.45951811  0.43048387  0.23513624    -0.28800
C156        C  0.39366715  0.28799726  0.28993462    -0.03000
C157        C  0.38604568  0.28462236  0.30825041    -0.39600
H158        H  0.39399052  0.30037177  0.25300096     0.13200
H159        H  0.42639845  0.35663821  0.23621985     0.12800
H160        H  0.47074433  0.41112190  0.28825278     0.12300
H161        H  0.43954751  0.35481603  0.30495604     0.12500
H162        H  0.49493370  0.44349483  0.25775185     0.15300
H163        H  0.43456029  0.41084377  0.22896182     0.14000
H164        H  0.38556246  0.26419583  0.28164359     0.11700
H165        H  0.39286025  0.30795082  0.31664274     0.13700
C166        C  0.42421604  0.08566861  0.29153069     0.19800
C167        C  0.41072750  0.04945460  0.28768998    -0.18300
C168        C  0.42740443  0.03881035  0.27461225    -0.10600
C169        C  0.45850840  0.06422784  0.26565777     0.22100
C170        C  0.47263158  0.10035874  0.26993848    -0.19900
C171        C  0.45532469  0.11108855  0.28256035    -0.10700
C172        C  0.47734609  0.05333002  0.25244644    -0.14900
C173        C  0.46025250  0.02942878  0.23892738    -0.28800
C174        C  0.40579070  0.09656493  0.30505844    -0.03000
C175        C  0.39891681  0.12294115  0.30109009    -0.39600
H176        H  0.38694439  0.02947525  0.29458590     0.13200
H177        H  0.41645834  0.01071702  0.27176903     0.12800
H178        H  0.49680739  0.12028389  0.26331827     0.12300
H179        H  0.46650722  0.13915810  0.28555460     0.12500
H180        H  0.50612832  0.06660135  0.25319991     0.15300
H181        H  0.43190865  0.01844966  0.23683986     0.14000
H182        H  0.39576435  0.08125814  0.31787288     0.11700
H183        H  0.40620381  0.13592953  0.28750756     0.13700
C184        C  0.38565989  0.27161502  0.08713591     0.19800
C185        C  0.37579845  0.26811768  0.06820555    -0.18300
C186        C  0.39324811  0.29671947  0.05585385    -0.10600
C187        C  0.42056907  0.32955119  0.06224651     0.22100
C188        C  0.43097871  0.33292842  0.08111745    -0.19900
C189        C  0.41352949  0.30442500  0.09346665    -0.10700
C190        C  0.43738859  0.35989472  0.04901847    -0.14900
C191        C  0.45115649  0.39377598  0.05466126    -0.28800
C192        C  0.36553631  0.24076617  0.09977561    -0.03000
C193        C  0.37633045  0.23803757  0.11705350    -0.39600
H194        H  0.35439543  0.24318639  0.06296000     0.13200
H195        H  0.38488767  0.29342228  0.04135775     0.12800
H196        H  0.45265798  0.35752745  0.08644193     0.12300
H197        H  0.42174905  0.30874548  0.10793751     0.12500
H198        H  0.43641474  0.35413710  0.03419895     0.15300
H199        H  0.45009375  0.39967311  0.06927972     0.14000
H200        H  0.34043388  0.21933396  0.09459700     0.11700
H201        H  0.40109577  0.25878081  0.12278043     0.13700
C202        C  0.16787521  0.11126399  0.06763578     0.19800
C203        C  0.20152742  0.11538461  0.06451778    -0.18300
C204        C  0.22733540  0.12880267  0.07857327    -0.10600
C205        C  0.21991723  0.13852272  0.09601428     0.22100
C206        C  0.18718350  0.13687456  0.09861375    -0.19900
C207        C  0.16129594  0.12326957  0.08458503    -0.10700
C208        C  0.24581439  0.15039789  0.11165761    -0.14900
C209        C  0.26854049  0.13809055  0.11383987    -0.28800
C210        C  0.13984256  0.09331414  0.05327202    -0.03000
C211        C  0.10565679  0.07260574  0.05797800    -0.39600
H212        H  0.20746310  0.10709729  0.05141493     0.13200
H213        H  0.25296417  0.13137188  0.07574982     0.12800
H214        H  0.18124806  0.14511093  0.11173209     0.12300
H215        H  0.13607383  0.12186053  0.08711015     0.12500
H216        H  0.24573950  0.16895667  0.12179915     0.15300
H217        H  0.26891447  0.11954262  0.10384000     0.14000
H218        H  0.14774639  0.09492028  0.03876474     0.11700
H219        H  0.09800235  0.06929648  0.07258151     0.13700
C220        C  0.40857080  0.06878262  0.07436895     0.19800
C221        C  0.41395358  0.07353467  0.09374020    -0.18300
C222        C  0.39801332  0.08909479  0.10402326    -0.10600
C223        C  0.37633942  0.10040648  0.09507330     0.22100
C224        C  0.37025914  0.09495499  0.07580197    -0.19900
C225        C  0.38615774  0.07934713  0.06550996    -0.10700
C226        C  0.35853626  0.11669980  0.10539318    -0.14900
C227        C  0.37016104  0.13332221  0.12186686    -0.28800
C228        C  0.42654958  0.05235582  0.06419199    -0.03000
C229        C  0.42890602  0.05189741  0.04546845    -0.39600
H230        H  0.43060645  0.06515718  0.10098547     0.13200
H231        H  0.40226826  0.09152264  0.11897364     0.12800
H232        H  0.35318852  0.10292088  0.06865444     0.12300
H233        H  0.38029902  0.07537977  0.05074841     0.12500
H234        H  0.33498179  0.11510063  0.09903414     0.15300
H235        H  0.39381504  0.13561431  0.12838898     0.14000
H236        H  0.43949834  0.04104507  0.07261400     0.11700
H237        H  0.41722925  0.06370027  0.03654475     0.13700
C238        C  0.43087590  0.07216443  0.19143146     0.19800
C239        C  0.43639974  0.10665357  0.19412658    -0.18300
C240        C  0.41502881  0.11791879  0.18502101    -0.10600
C241        C  0.38714203  0.09456837  0.17320696     0.22100
C242        C  0.38123528  0.05984974  0.17081698    -0.19900
C243        C  0.40266309  0.04864410  0.17987564    -0.10700
C244        C  0.36555469  0.10597998  0.16193864    -0.14900
C245        C  0.36528177  0.13666845  0.16445572    -0.28800
C246        C  0.45400605  0.06119805  0.20150542    -0.03000
C247        C  0.45874293  0.03416240  0.19596026    -0.39600
H248        H  0.45775705  0.12518830  0.20307815     0.13200
H249        H  0.42119097  0.14514830  0.18697108     0.12800
H250        H  0.36004335  0.04132165  0.16178089     0.12300
H251        H  0.39671398  0.02145247  0.17793025     0.12500
H252        H  0.34996264  0.08870209  0.15054172     0.15300
H253        H  0.37731587  0.15274249  0.17676378     0.14000
H254        H  0.46831807  0.07660524  0.21367281     0.11700
H255        H  0.44799434  0.02130093  0.18266299     0.13700
C256        C  0.13428143  0.07601287  0.18555338     0.19800
C257        C  0.16130193  0.11165845  0.18678332    -0.18300
C258        C  0.19213947  0.12429543  0.17612986    -0.10600
C259        C  0.19693084  0.10127474  0.16419541     0.22100
C260        C  0.16967564  0.06576367  0.16273219    -0.19900
C261        C  0.13880896  0.05312387  0.17337723    -0.10700
C262        C  0.22971317  0.11335442  0.15298802    -0.14900
C263        C  0.26110038  0.14166040  0.15765521    -0.28800
C264        C  0.10256107  0.06345945  0.19769550    -0.03000
C265        C  0.07132152  0.03410777  0.19411736    -0.39600
H266        H  0.15848382  0.12988021  0.19598982     0.13200
H267        H  0.21190881  0.15215174  0.17720474     0.12800
H268        H  0.17258970  0.04750604  0.15359878     0.12300
H269        H  0.11909547  0.02524954  0.17232576     0.12500
H270        H  0.22832058  0.09714900  0.14115429     0.15300
H271        H  0.26365662  0.15548559  0.17065098     0.14000
H272        H  0.10468758  0.07963329  0.20971332     0.11700
H273        H  0.06743396  0.01991052  0.18110613     0.13700
C274        C  0.39630075  0.30542699  0.16575082     0.19800
C275        C  0.39262993  0.33528586  0.16180626    -0.18300
C276        C  0.41310779  0.36738241  0.17130008    -0.10600
C277        C  0.43816091  0.37040410  0.18484755     0.22100
C278        C  0.44174699  0.34050731  0.18877564    -0.19900
C279        C  0.42131949  0.30849908  0.17930565    -0.10700
C280        C  0.46007088  0.40334243  0.19584025    -0.14900
C281        C  0.46188513  0.43492649  0.19266708    -0.28800
C282        C  0.37513099  0.27233041  0.15474715    -0.03000
C283        C  0.37055063  0.24032229  0.15989245    -0.39600
H284        H  0.37373723  0.33374939  0.15135561     0.13200
H285        H  0.40879110  0.38936281  0.16802875     0.12800
H286        H  0.46067068  0.34194739  0.19918318     0.12300
H287        H  0.42593529  0.28664641  0.18244008     0.12500
H288        H  0.47540893  0.40134036  0.20737610     0.15300
H289        H  0.44997087  0.43920811  0.18029071     0.14000
H290        H  0.36266646  0.27443582  0.14195839     0.11700
H291        H  0.37916595  0.23675455  0.17358657     0.13700
C292        C  0.34381581  0.42406661  0.94742950     0.19800
C293        C  0.33125772  0.44310573  0.93692005    -0.18300
C294        C  0.29966643  0.42530336  0.92671420    -0.10600
C295        C  0.27984389  0.38789920  0.92686075     0.22100
C296        C  0.29214693  0.36884484  0.93751812    -0.19900
C297        C  0.32381194  0.38663410  0.94767194    -0.10700
C298        C  0.24583390  0.36785357  0.91653437    -0.14900
C299        C  0.23780681  0.38042047  0.90114260    -0.28800
C300        C  0.37654798  0.44437792  0.95880383    -0.03000
C301        C  0.39584928  0.43048829  0.96597764    -0.39600
H302        H  0.34581749  0.47194619  0.93673078     0.13200
H303        H  0.29052695  0.44097553  0.91912707     0.12800
H304        H  0.27713506  0.34002661  0.93802034     0.12300
H305        H  0.33183215  0.37089200  0.95601887     0.12500
H306        H  0.22780326  0.34067270  0.92097412     0.15300
H307        H  0.25670621  0.40623691  0.89545460     0.14000
H308        H  0.38511787  0.47223523  0.96138266     0.11700
H309        H  0.38891223  0.40322435  0.96304934     0.13700
C310        C  0.09754938  0.16567555  0.95294792     0.19800
C311        C  0.12601016  0.17612956  0.94062117    -0.18300
C312        C  0.13864455  0.20758109  0.93023574    -0.10600
C313        C  0.12313197  0.22928325  0.93218551     0.22100
C314        C  0.09581541  0.21960508  0.94517639    -0.19900
C315        C  0.08301647  0.18807964  0.95541067    -0.10700
C316        C  0.13434633  0.26196574  0.92088910    -0.14900
C317        C  0.14821531  0.26635810  0.90371976    -0.28800
C318        C  0.08421088  0.13197300  0.96357150    -0.03000
C319        C  0.05003703  0.11237097  0.96862227    -0.39600
H320        H  0.13812306  0.15965735  0.93882796     0.13200
H321        H  0.16062280  0.21486235  0.92084030     0.12800
H322        H  0.08388562  0.23619506  0.94717922     0.12300
H323        H  0.06200445  0.18152424  0.96537606     0.12500
H324        H  0.12771060  0.28145528  0.92612901     0.15300
H325        H  0.15227264  0.24575160  0.89764664     0.14000
H326        H  0.10280250  0.12281271  0.96701331     0.11700
H327        H  0.03092926  0.12027190  0.96421249     0.13700
C328        C  0.08002345  0.41367421  0.95456038     0.19800
C329        C  0.06097691  0.38343385  0.94333204    -0.18300
C330        C  0.07863348  0.37074520  0.93217193    -0.10600
C331        C  0.11593287  0.38802177  0.93205102     0.22100
C332        C  0.13498222  0.41769164  0.94364028    -0.19900
C333        C  0.11732956  0.43049874  0.95473908    -0.10700
C334        C  0.13581854  0.37553199  0.92034923    -0.14900
C335        C  0.12296542  0.35751689  0.90429412    -0.28800
C336        C  0.05989419  0.42591438  0.96626959    -0.03000
C337        C  0.07378485  0.45901509  0.97332148    -0.39600
H338        H  0.03224043  0.36957521  0.94315076     0.13200
H339        H  0.06292656  0.34709629  0.92392972     0.12800
H340        H  0.16370278  0.43117679  0.94402606     0.12300
H341        H  0.13306666  0.45312723  0.96362792     0.12500
H342        H  0.16297439  0.38371214  0.92438884     0.15300
H343        H  0.09706090  0.35178687  0.89922833     0.14000
H344        H  0.03200778  0.40708425  0.96866183     0.11700
H345        H  0.10105679  0.47888904  0.97041521     0.13700
C346        C  0.09587057  0.39891964  0.85544105     0.19800
C347        C  0.09921214  0.43185065  0.86028340    -0.18300
C348        C  0.07814420  0.44401314  0.85172627    -0.10600
C349        C  0.05311117  0.42347981  0.83794300     0.22100
C350        C  0.04939227  0.39029205  0.83326212    -0.19900
C351        C  0.07043147  0.37805028  0.84188494    -0.10700
C352        C  0.03077904  0.43566099  0.82791146    -0.14900
C353        C  0.03755534  0.46958770  0.82765578    -0.28800
C354        C  0.11842785  0.38717137  0.86556285    -0.03000
C355        C  0.12061530  0.35794660  0.86149575    -0.39600
H356        H  0.11816352  0.44828320  0.87086780     0.13200
H357        H  0.08150865  0.46929197  0.85621901     0.12800
H358        H  0.03022171  0.37379276  0.82277853     0.12300
H359        H  0.06623567  0.35216738  0.83795783     0.12500
H360        H  0.00882754  0.41620955  0.81949967     0.15300
H361        H  0.05831735  0.48977139  0.83623577     0.14000
H362        H  0.13442538  0.40381250  0.87705202     0.11700
H363        H  0.10797421  0.34246505  0.84910665     0.13700
C364        C  0.09460864  0.19882326  0.85481574     0.19800
C365        C  0.07774988  0.16545646  0.86378605    -0.18300
C366        C  0.06156160  0.13387151  0.85340469    -0.10600
C367        C  0.06135362  0.13507509  0.83377156     0.22100
C368        C  0.07776204  0.16841924  0.82482077    -0.19900
C369        C  0.09447258  0.19995821  0.83518047    -0.10700
C370        C  0.04259158  0.10240346  0.82216846    -0.14900
C371        C  0.03970971  0.07076239  0.82679581    -0.28800
C372        C  0.11010131  0.23171722  0.86636694    -0.03000
C373        C  0.13763637  0.26332498  0.86096949    -0.39600
H374        H  0.07701731  0.16384606  0.87890442     0.13200
H375        H  0.04833008  0.10867909  0.86076814     0.12800
H376        H  0.07754670  0.17005613  0.80971112     0.12300
H377        H  0.10622464  0.22510060  0.82777131     0.12500
H378        H  0.03127427  0.10503755  0.80910650     0.15300
H379        H  0.04992469  0.06775718  0.84015697     0.14000
H380        H  0.09816043  0.22947262  0.87993022     0.11700
H381        H  0.14890998  0.26608210  0.84717628     0.13700
C382        C  0.29925787  0.40404570  0.85163907     0.19500
C383        C  0.33159333  0.41270094  0.86040129    -0.18300
C384        C  0.36394178  0.43414940  0.85148329    -0.10600
C385        C  0.36487190  0.44719958  0.83331377     0.22100
C386        C  0.33254287  0.43915198  0.82463761    -0.19900
C387        C  0.30004275  0.41777169  0.83364893    -0.10700
C388        C  0.39875184  0.46863368  0.82288214    -0.14900
C389        C  0.42894822  0.46801024  0.82676708    -0.28800
C390        C  0.26589022  0.38055573  0.86197825    -0.03000
C391        C  0.23383927  0.37732764  0.85842514    -0.39600
H392        H  0.33187909  0.40295924  0.87435572     0.13200
H393        H  0.38800817  0.44053413  0.85903628     0.12800
H394        H  0.33239569  0.44885892  0.81065975     0.12300
H395        H  0.27580193  0.41156308  0.82631103     0.12500
H396        H  0.39818489  0.48399285  0.81096349     0.15300
H397        H  0.43041731  0.45366611  0.83888277     0.14000
H398        H  0.26834719  0.36618008  0.87386950     0.11700
H399        H  0.22965482  0.38968879  0.84618508     0.13700
C400        C  0.37473810  0.43125274  0.76952206     0.19800
C401        C  0.35363699  0.39504346  0.76528498    -0.18300
C402        C  0.32591342  0.38370605  0.75229729    -0.10600
C403        C  0.31866769  0.40854838  0.74332764     0.22100
C404        C  0.33928763  0.44466198  0.74797235    -0.19900
C405        C  0.36692064  0.45593823  0.76093390    -0.10700
C406        C  0.28931034  0.39822088  0.72960034    -0.14900
C407        C  0.27143897  0.36604934  0.72147074    -0.28800
C408        C  0.40418267  0.44250021  0.78321350    -0.03000
C409        C  0.43288473  0.47510999  0.78278950    -0.39600
H410        H  0.35877973  0.37548126  0.77195735     0.13200
H411        H  0.31014368  0.35549759  0.74965208     0.12800
H412        H  0.33395187  0.46431201  0.74156771     0.12300
H413        H  0.38168808  0.48393755  0.76438519     0.12500
H414        H  0.28228110  0.41837023  0.72588693     0.15300
H415        H  0.27814363  0.34548784  0.72443956     0.14000
H416        H  0.40290818  0.42323156  0.79345347     0.11700
H417        H  0.43639981  0.49313442  0.77134567     0.13700
C418        C  0.04787386  0.10622241  0.75559729     0.19800
C419        C  0.02862011  0.11771169  0.74457117    -0.18300
C420        C  0.04619059  0.14816232  0.73343311    -0.10600
C421        C  0.08351063  0.16754878  0.73305351     0.22100
C422        C  0.10268444  0.15538550  0.74369430    -0.19900
C423        C  0.08511759  0.12506812  0.75488287    -0.10700
C424        C  0.10357653  0.19980706  0.72136396    -0.14900
C425        C  0.09000011  0.21964450  0.71458771    -0.28800
C426        C  0.02836908  0.07414135  0.76740033    -0.03000
C427        C  0.04148248  0.06966162  0.78359011    -0.39600
H428        H  0.99988011  0.10323323  0.74470136     0.13200
H429        H  0.03036910  0.15589118  0.72497809     0.12800
H430        H  0.13141949  0.16946827  0.74339293     0.12300
H431        H  0.10074671  0.11619575  0.76271545     0.12500
H432        H  0.13129264  0.20825691  0.71875313     0.15300
H433        H  0.06295582  0.21295296  0.71764672     0.14000
H434        H  0.49846279  0.05567224  0.76310319     0.11700
H435        H  0.06705944  0.09023247  0.78871417     0.13700
C436        C  0.08066205  0.41253103  0.73483931     0.19800
C437        C  0.05360427  0.39492665  0.74799814    -0.18300
C438        C  0.04182275  0.41384711  0.75876787    -0.10600
C439        C  0.05664703  0.45086359  0.75643865     0.22100
C440        C  0.08296037  0.46833350  0.74288253    -0.19900
C441        C  0.09508801  0.44945748  0.73226445    -0.10700
C442        C  0.04407061  0.47143273  0.76747184    -0.14900
C443        C  0.03275719  0.46266884  0.78517697    -0.28800
C444        C  0.09212256  0.39137224  0.72352009    -0.03000
C445        C  0.12517879  0.40487403  0.71675735    -0.39600
H446        H  0.04164047  0.36642725  0.75001042     0.13200
H447        H  0.02060657  0.39929898  0.76863164     0.12800
H448        H  0.09430690  0.49669455  0.74059123     0.12300
H449        H  0.11516494  0.46369632  0.72180225     0.12500
H450        H  0.04559085  0.49498311  0.76109199     0.15300
H451        H  0.03498387  0.44126009  0.79170458     0.14000
H452        H  0.07308163  0.36339441  0.72130772     0.11700
H453        H  0.14508825  0.43214888  0.71989798     0.13700
C454        C  0.23227864  0.22873441  0.40467085     0.19800
C455        C  0.20487030  0.21312504  0.41780829    -0.18300
C456        C  0.19547532  0.23432635  0.42840101    -0.10600
C457        C  0.21310728  0.27153400  0.42581856     0.22100
C458        C  0.23931843  0.28684296  0.41208874    -0.19900
C459        C  0.24888756  0.26578361  0.40165970    -0.10700
C460        C  0.20437339  0.29508702  0.43686096    -0.14900
C461        C  0.19336985  0.28802846  0.45464316    -0.28800
C462        C  0.24331077  0.20631669  0.39409630    -0.03000
C463        C  0.27734870  0.21930221  0.38921768    -0.39600
H464        H  0.19118971  0.18461345  0.42011210     0.13200
H465        H  0.17422374  0.22152195  0.43843343     0.12800
H466        H  0.25280327  0.31530449  0.40959446     0.12300
H467        H  0.26915540  0.27860690  0.39111624     0.12500
H468        H  0.20943160  0.32009883  0.43057710     0.15300
H469        H  0.19093380  0.26439872  0.46140444     0.14000
H470        H  0.22363242  0.17917216  0.39052199     0.11700
H471        H  0.29693289  0.24579734  0.39384555     0.13700
C472        C  0.05849199  0.27461793  0.42629799     0.19800
C473        C  0.04551579  0.29191403  0.41478872    -0.18300
C474        C  0.01520832  0.27229763  0.40391273    -0.10600
C475        C  0.49928937  0.23438022  0.40343703     0.22100
C476        C  0.01119318  0.21748721  0.41517601    -0.19900
C477        C  0.04139767  0.23719180  0.42625216    -0.10700
C478        C  0.46660157  0.21349847  0.39226365    -0.14900
C479        C  0.44762524  0.22818525  0.38589853    -0.28800
C480        C  0.09050279  0.29645996  0.43772467    -0.03000
C481        C  0.09536889  0.28627600  0.45470570    -0.39600
H482        H  0.05867314  0.32072708  0.41436578     0.13200
H483        H  0.51616860  0.28478105  0.38919763     0.12800
H484        H  0.49184546  0.18900770  0.41978527     0.12300
H485        H  0.05158795  0.22319099  0.43455393     0.12500
H486        H  0.45715340  0.18537491  0.38999726     0.15300
H487        H  0.45583000  0.25566297  0.38925769     0.14000
H488        H  0.10943851  0.32280674  0.43255378     0.11700
H489        H  0.07503644  0.26141278  0.46071289     0.13700
C490        C  0.24225032  0.99822426  0.40313511     0.19800
C491        C  0.21136037  0.48714365  0.41454498    -0.18300
C492        C  0.19980364  0.45660595  0.42565621    -0.10600
C493        C  0.21548945  0.43500331  0.42400948     0.22100
C494        C  0.24207460  0.44404323  0.41059883    -0.19900
C495        C  0.25381674  0.47470872  0.39959696    -0.10700
C496        C  0.20443347  0.40262597  0.43575004    -0.14900
C497        C  0.19104961  0.39894418  0.45304642    -0.28800
C498        C  0.25387578  0.03126577  0.39188415    -0.03000
C499        C  0.28732176  0.05139138  0.38574224    -0.39600
H500        H  0.19798793  0.00063389  0.41525565     0.13200
H501        H  0.17834180  0.44983647  0.43534012     0.12800
H502        H  0.25413314  0.42752583  0.40877926     0.12300
H503        H  0.28199555  0.98563402  0.39311554     0.12500
H504        H  0.20981431  0.38228340  0.43048621     0.15300
H505        H  0.18819609  0.42037541  0.45899716     0.14000
H506        H  0.23460608  0.03984069  0.38907432     0.11700
H507        H  0.30727171  0.04411421  0.38922712     0.13700
C508        C  0.26912617  0.20243235  0.60079749     0.19800
C509        C  0.25980275  0.18920638  0.61910078    -0.18300
C510        C  0.24582957  0.20397309  0.63144976    -0.10600
C511        C  0.24040915  0.23195990  0.62567888     0.22100
C512        C  0.25006089  0.24544402  0.60739104    -0.19900
C513        C  0.26390008  0.23065326  0.59504874    -0.10700
C514        C  0.22566449  0.24726678  0.63911534    -0.14900
C515        C  0.20858268  0.26446650  0.63345542    -0.28800
C516        C  0.28363205  0.18562324  0.58821731    -0.03000
C517        C  0.30005038  0.19963615  0.57191364    -0.39600
H518        H  0.26349340  0.16743912  0.62390232     0.13200
H519        H  0.23895990  0.19331456  0.64549276     0.12800
H520        H  0.24754741  0.26782442  0.60254053     0.12300
H521        H  0.27006896  0.24140023  0.58104678     0.12500
H522        H  0.22883859  0.24420461  0.65397219     0.15300
H523        H  0.20389895  0.26632570  0.61869023     0.14000
H524        H  0.28063998  0.16033210  0.59271568     0.11700
H525        H  0.30345239  0.22477162  0.56685218     0.13700
C526        C  0.00155102  0.27816411  0.61960229     0.19800
C527        C  0.46949539  0.24148703  0.62321731    -0.18300
C528        C  0.44366777  0.22779284  0.60919242    -0.10600
C529        C  0.44781280  0.24729398  0.59264696     0.22100
C530        C  0.47736166  0.28144537  0.59089511    -0.19900
C531        C  0.00829594  0.29342569  0.60159173    -0.10700
C532        C  0.42123930  0.23292676  0.57731146    -0.14900
C533        C  0.40153855  0.19787882  0.57416545    -0.28800
C534        C  0.02967809  0.28978475  0.63405635    -0.03000
C535        C  0.06370677  0.30193624  0.62950478    -0.39600
H536        H  0.46605705  0.22565272  0.63563744     0.13200
H537        H  0.42041788  0.20205108  0.61145276     0.12800
H538        H  0.48067189  0.29731251  0.57850798     0.12300
H539        H  0.03381538  0.31599115  0.59810998     0.12500
H540        H  0.41771101  0.25142774  0.56841815     0.15300
H541        H  0.40481137  0.17890098  0.58271568     0.14000
H542        H  0.02189017  0.28536951  0.64865736     0.11700
H543        H  0.07130696  0.30433588  0.61492146     0.13700
C544        C  0.26684163  0.50821390  0.62948289     0.19800
C545        C  0.28788746  0.01073842  0.61415204    -0.18300
C546        C  0.29640177  0.03743539  0.60083053    -0.10600
C547        C  0.28776590  0.06431921  0.60391255     0.22100
C548        C  0.27220112  0.06488479  0.62095535    -0.19900
C549        C  0.25994998  0.53593832  0.63317891    -0.10700
C550        C  0.29535253  0.09299260  0.59021829    -0.14900
C551        C  0.30632737  0.09416636  0.57256207    -0.28800
C552        C  0.25321625  0.47766889  0.64247010    -0.03000
C553        C  0.24068840  0.44442551  0.63615594    -0.39600
H554        H  0.29467222  0.99027219  0.61135978     0.13200
H555        H  0.30968236  0.03669281  0.58828098     0.12800
H556        H  0.26592550  0.08570404  0.62385818     0.12300
H557        H  0.24646196  0.53587721  0.64586944     0.12500
H558        H  0.29104608  0.11416779  0.59506147     0.15300
H559        H  0.30861756  0.07229024  0.56684966     0.14000
H560        H  0.24937567  0.48198937  0.65701112     0.11700
H561        H  0.24174730  0.43970293  0.62134886     0.13700
C562        C  0.26176778  0.22547298  0.52182399     0.19800
C563        C  0.22675998  0.21864684  0.52361351    -0.18300
C564        C  0.21557106  0.24014091  0.51454789    -0.10600
C565        C  0.23941159  0.26938653  0.50363835     0.22100
C566        C  0.27440954  0.27621660  0.50182807    -0.19900
C567        C  0.28562270  0.25474713  0.51091819    -0.10700
C568        C  0.22817825  0.29180865  0.49299780    -0.14900
C569        C  0.19916967  0.29412395  0.49711756    -0.28800
C570        C  0.27279631  0.20283997  0.53244587    -0.03000
C571        C  0.30243373  0.20130721  0.52887752    -0.39600
H572        H  0.20787598  0.19640779  0.53198465     0.13200
H573        H  0.18807945  0.23322374  0.51584323     0.12800
H574        H  0.29325325  0.29844024  0.49343495     0.12300
H575        H  0.31310934  0.26168797  0.50959943     0.12500
H576        H  0.24429108  0.30676768  0.48113857     0.15300
H577        H  0.18487395  0.28263922  0.50997922     0.14000
H578        H  0.25569366  0.18675290  0.54375559     0.11700
H579        H  0.31777844  0.21382612  0.51643274     0.13700
C580        C  0.23687368  0.46480707  0.50264687     0.19800
C581        C  0.27301364  0.99198735  0.50061286    -0.18300
C582        C  0.28557765  0.02435071  0.51004690    -0.10600
C583        C  0.26341611  0.02952163  0.52237953     0.22100
C584        C  0.22874514  0.00136405  0.52520411    -0.19900
C585        C  0.21462373  0.47011995  0.51484032    -0.10700
C586        C  0.27567410  0.06296147  0.53324050    -0.14900
C587        C  0.30497205  0.09423384  0.52933394    -0.28800
C588        C  0.22434285  0.43147274  0.49169815    -0.03000
C589        C  0.19525722  0.40029079  0.49592164    -0.39600
H590        H  0.29061350  0.98885278  0.49113199     0.13200
H591        H  0.31275851  0.04487296  0.50780188     0.12800
H592        H  0.21111356  0.00447879  0.53467096     0.12300
H593        H  0.18726178  0.44984947  0.51685279     0.12500
H594        H  0.25938957  0.06182655  0.54496683     0.15300
H595        H  0.31967874  0.09735539  0.51662666     0.14000
H596        H  0.24019236  0.43253328  0.47977561     0.11700
H597        H  0.18120748  0.39740075  0.50884818     0.13700
C598        C  0.03312811  0.26783275  0.50552115     0.19800
C599        C  0.00520574  0.27521896  0.50361892    -0.18300
C600        C  0.47375875  0.25445803  0.51161711    -0.10600
C601        C  0.46949783  0.22746979  0.52419589     0.22100
C602        C  0.49802641  0.22128023  0.52706623    -0.19900
C603        C  0.02884295  0.24032689  0.51773996    -0.10700
C604        C  0.43648601  0.20641501  0.53518494    -0.14900
C605        C  0.40491061  0.20308583  0.53042372    -0.28800
C606        C  0.06535386  0.28817696  0.49383423    -0.03000
C607        C  0.09694503  0.29061283  0.49755279    -0.39600
H608        H  0.00776662  0.29624403  0.49433064     0.13200
H609        H  0.45292903  0.26091713  0.50937212     0.12800
H610        H  0.49552967  0.20076212  0.53671658     0.12300
H611        H  0.04928594  0.23311543  0.51928439     0.12500
H612        H  0.43820583  0.19233967  0.54739208     0.15300
H613        H  0.40180715  0.21344843  0.51714301     0.14000
H614        H  0.06310944  0.30239383  0.48179982     0.11700
H615        H  0.10100651  0.28002599  0.51053051     0.13700
C616        C  0.33346368  0.66313257  0.56904787     0.46600
H617        H  0.33384731  0.66379784  0.58453068    -0.02500
C618        C  0.33596518  0.66441440  0.53282221     0.46600
H619        H  0.33699707  0.66498717  0.51730147    -0.02500
C620        C  0.37111166  0.68229197  0.56130956    -0.16100
C621        C  0.31610244  0.62594248  0.56039470    -0.15900
C622        C  0.31497795  0.68192469  0.56007190    -0.16300
C623        C  0.37277887  0.68340386  0.54212990    -0.16300
C624        C  0.31719221  0.62644300  0.54116515    -0.15800
C625        C  0.31638518  0.68269891  0.54088118    -0.16100
C626        C  0.16570473  0.82972719  0.49307664     0.46600
H627        H  0.16580058  0.82973594  0.50861149    -0.02500
C628        C  0.16544242  0.82949091  0.45675753     0.46600
H629        H  0.16489211  0.82908014  0.44129582    -0.02500
C630        C  0.18520869  0.81170051  0.48464131    -0.16100
C631        C  0.12828991  0.80973361  0.48459982    -0.15900
C632        C  0.18311687  0.86719464  0.48440601    -0.16300
C633        C  0.18478713  0.81109203  0.46540091    -0.16300
C634        C  0.12812114  0.80956074  0.46538579    -0.15800
C635        C  0.18281123  0.86707611  0.46518824    -0.16100
Zn636      Zn  0.18359135  0.80179753  0.68462524     1.49700
Zn637      Zn  0.17066372  0.83689584  0.64899685     1.49400
Zn638      Zn  0.11604257  0.81467088  0.68253099     1.49100
Zn639      Zn  0.19497491  0.88080251  0.68691513     1.49500
O640        O  0.16616338  0.83347026  0.67597459    -1.83000
O641        O  0.20112791  0.78357115  0.66338408    -0.73600
O642        O  0.12489311  0.82355403  0.63636272    -0.73500
O643        O  0.09774655  0.76807078  0.69652621    -0.73000
O644        O  0.18837661  0.80624525  0.63857305    -0.73700
O645        O  0.14436194  0.75962023  0.69762513    -0.73300
O646        O  0.08560921  0.80640407  0.65933968    -0.73800
O647        O  0.16422945  0.89627329  0.70023095    -0.73200
O648        O  0.20482819  0.88591531  0.64100817    -0.74000
O649        O  0.10980866  0.84949754  0.69875731    -0.73400
O650        O  0.22226180  0.91779210  0.66708904    -0.73800
O651        O  0.22973277  0.88066382  0.70574930    -0.73800
O652        O  0.22315090  0.82645446  0.70340696    -0.73500
C653        C  0.20035569  0.78742123  0.64574804     0.78200
C654        C  0.09339149  0.81174807  0.64203605     0.78700
C655        C  0.11216945  0.74979173  0.70145189     0.77700
C656        C  0.13135428  0.88113870  0.70409727     0.78100
C657        C  0.22300881  0.91528328  0.64939212     0.79200
C658        C  0.23808859  0.85735990  0.71062862     0.78300
C659        C  0.00063366  0.50151183  0.78738051     0.46600
H660        H  0.00009932  0.50073923  0.77189921    -0.02500
C661        C  0.00074255  0.50245428  0.82366724     0.46600
H662        H  0.00094806  0.50287087  0.83919729    -0.02500
C663        C  0.46162337  0.98430728  0.79519220    -0.16100
C664        C  0.01554371  0.97914447  0.79536440    -0.15900
C665        C  0.02111776  0.53916371  0.79556399    -0.16300
C666        C  0.46187574  0.98374268  0.81445260    -0.16300
C667        C  0.01651615  0.97951607  0.81458929    -0.15800
C668        C  0.02095344  0.53984113  0.81478324    -0.16100
C669        C  0.16674277  0.83449200  0.86353035     0.46600
H670        H  0.16566328  0.83456133  0.84800965    -0.02500
C671        C  0.16928474  0.83440938  0.89986181     0.46600
H672        H  0.17030679  0.83439223  0.91534803    -0.02500
C673        C  0.14350160  0.84774147  0.87271414    -0.16100
C674        C  0.15378068  0.79727392  0.87200970    -0.15900
C675        C  0.20431820  0.85819881  0.87158581    -0.16300
C676        C  0.14487841  0.84769981  0.89194313    -0.16300
C677        C  0.15573389  0.79742416  0.89122101    -0.15800
C678        C  0.20548757  0.85815684  0.89081105    -0.16100
C679        C  0.33399362  0.66575914  0.12151850     0.46600
H680        H  0.33581967  0.66489363  0.10609624    -0.02500
C681        C  0.33023588  0.66865724  0.15759737     0.46600
H682        H  0.32873066  0.66985497  0.17305393    -0.02500
C683        C  0.29603840  0.64856399  0.12870979    -0.16100
C684        C  0.35112751  0.64705175  0.13197277    -0.15900
C685        C  0.35254131  0.70387486  0.12923346    -0.16300
C686        C  0.29365524  0.65010615  0.14782759    -0.16300
C687        C  0.34920573  0.64857286  0.15109329    -0.15800
C688        C  0.35073286  0.70546357  0.14834554    -0.16100
C689        C  0.49814549  0.00350228  0.19710448     0.46600
H690        H  0.49793972  0.00539400  0.18161052    -0.02500
C691        C  0.49839835  0.99887441  0.23333350     0.46600
H692        H  0.49730987  0.99604120  0.24875996    -0.02500
C693        C  0.48340588  0.52289673  0.20727496    -0.16100
C694        C  0.47927271  0.96505767  0.20426544    -0.15900
C695        C  0.03747430  0.52038922  0.20606133    -0.16300
C696        C  0.48376314  0.52120576  0.22646997    -0.16300
C697        C  0.47922931  0.96263381  0.22339582    -0.15800
C698        C  0.03773705  0.51870364  0.22529669    -0.16100
Zn699      Zn  0.36093619  0.64223832  0.35268837     1.49700
Zn700      Zn  0.28428001  0.63852785  0.35363442     1.49400
Zn701      Zn  0.35630203  0.71325660  0.35424560     1.49100
Zn702      Zn  0.33546429  0.66903599  0.31712112     1.49500
O703        O  0.33380111  0.66521180  0.34444807    -1.83000
O704        O  0.32951713  0.59793943  0.36745389    -0.73600
O705        O  0.27192003  0.67037015  0.36976181    -0.73500
O706        O  0.39810592  0.72385238  0.37001165    -0.73000
O707        O  0.27681055  0.59493119  0.36881291    -0.73700
O708        O  0.40321001  0.67526212  0.36890476    -0.73300
O709        O  0.32307158  0.72135386  0.36940748    -0.73800
O710        O  0.35867197  0.71987463  0.30783910    -0.73200
O711        O  0.25035672  0.62100454  0.33132320    -0.74000
O712        O  0.37397466  0.75032023  0.33429592    -0.73400
O713        O  0.28617055  0.64284088  0.30672227    -0.73800
O714        O  0.36372906  0.64830060  0.30611683    -0.73800
O715        O  0.38006967  0.62793511  0.33064514    -0.73500
C716        C  0.29733202  0.58245590  0.37277922     0.78200
C717        C  0.29095103  0.70304121  0.37440851     0.78700
C718        C  0.41414370  0.70702949  0.37440392     0.77700
C719        C  0.37319620  0.74928949  0.31659610     0.78100
C720        C  0.25529387  0.62516413  0.31369621     0.79200
C721        C  0.37960862  0.63286933  0.31309678     0.78300
Zn722      Zn  0.04990416  0.53085882  0.00463621     1.49700
Zn723      Zn  0.49704905  0.50362544  0.03757196     1.49400
Zn724      Zn  0.47330100  0.52035186  0.99873545     1.49100
Zn725      Zn  0.48466314  0.95353377  0.00404021     1.49500
O726        O  0.50234158  0.50269664  0.01058176    -1.83000
O727        O  0.08125058  0.55161134  0.02761187    -0.73600
O728        O  0.46700826  0.52496587  0.04486696    -0.73500
O729        O  0.00064346  0.56121616  0.98398224    -0.73000
O730        O  0.04226786  0.53054844  0.05081409    -0.73700
O731        O  0.05583381  0.57161381  0.98807983    -0.73300
O732        O  0.44903016  0.53523608  0.01761854    -0.73800
O733        O  0.44206041  0.93631411  0.98677951    -0.73200
O734        O  0.47295520  0.95409908  0.04995914    -0.74000
O735        O  0.43426857  0.98320898  0.98428081    -0.73400
O736        O  0.46834056  0.91942022  0.02605519    -0.73800
O737        O  0.02273751  0.94822311  0.98921163    -0.73800
O738        O  0.06998887  0.00241611  0.99060759    -0.73500
C739        C  0.07387048  0.54886703  0.04497565     0.78200
C740        C  0.44955890  0.53610990  0.03536996     0.78700
C741        C  0.03376245  0.57967166  0.98087580     0.77700
C742        C  0.42499647  0.95106226  0.98042138     0.78100
C743        C  0.46423419  0.92367661  0.04328839     0.79200
C744        C  0.05511834  0.97003427  0.98543769     0.78300
C745        C  0.16102437  0.57545027  0.29238634     0.19800
C746        C  0.16517857  0.57053569  0.27331912    -0.18300
C747        C  0.13665757  0.55915506  0.26087524    -0.10600
C748        C  0.10311295  0.55182894  0.26726448     0.22100
C749        C  0.09881699  0.55579163  0.28637541    -0.19900
C750        C  0.12736448  0.56723521  0.29880653    -0.10700
C751        C  0.07215831  0.54108549  0.25460520    -0.14900
C752        C  0.07001775  0.52966270  0.23692912    -0.28800
C753        C  0.19116224  0.58942495  0.30587615    -0.03000
C754        C  0.22509035  0.60973690  0.30054352    -0.39600
H755        H  0.19034560  0.57533797  0.26786820     0.13200
H756        H  0.14144917  0.55688390  0.24629459     0.12800
H757        H  0.07327098  0.55024152  0.29171260     0.12300
H758        H  0.12330596  0.57042992  0.31342545     0.12500
H759        H  0.04997095  0.54284820  0.26027282     0.15300
H760        H  0.09174826  0.52776315  0.23081740     0.14000
H761        H  0.18513589  0.58440878  0.32066999     0.11700
H762        H  0.23140645  0.61641108  0.28591801     0.13700
C763        C  0.41485142  0.82047670  0.27801651     0.19800
C764        C  0.40802590  0.82242461  0.25900391    -0.18300
C765        C  0.42601237  0.85470525  0.24933785    -0.10600
C766        C  0.45127834  0.88578923  0.25857807     0.22100
C767        C  0.45909399  0.88349367  0.27737915    -0.19900
C768        C  0.44114103  0.85124274  0.28702939    -0.10700
C769        C  0.47079403  0.92071217  0.24895915    -0.14900
C770        C  0.45830207  0.92875021  0.23360729    -0.28800
C771        C  0.39510829  0.78579962  0.28787278    -0.03000
C772        C  0.39039470  0.78341127  0.30646152    -0.39600
H773        H  0.38857066  0.79893369  0.25163095     0.13200
H774        H  0.42035384  0.85491084  0.23461650     0.12800
H775        H  0.47904897  0.90681333  0.28466861     0.12300
H776        H  0.44843941  0.85053148  0.30143655     0.12500
H777        H  0.49623795  0.94046525  0.25471353     0.15300
H778        H  0.43273454  0.90972349  0.22778179     0.14000
H779        H  0.38380526  0.76163286  0.27957532     0.11700
H780        H  0.40017201  0.80732059  0.31482188     0.13700
C781        C  0.42581605  0.58558649  0.29184449     0.19800
C782        C  0.41148701  0.54961436  0.28718292    -0.18300
C783        C  0.42880374  0.53920655  0.27439909    -0.10600
C784        C  0.46130347  0.56456413  0.26660630     0.22100
C785        C  0.47623659  0.60038334  0.27177100    -0.19900
C786        C  0.45830983  0.61095936  0.28405921    -0.10700
C787        C  0.48048736  0.55380959  0.25358515    -0.14900
C788        C  0.46416585  0.53223047  0.23908076    -0.28800
C789        C  0.40681235  0.59633288  0.30499186    -0.03000
C790        C  0.39860842  0.62150778  0.30035695    -0.39600
H791        H  0.38658172  0.52970754  0.29318190     0.13200
H792        H  0.41718749  0.51131723  0.27084511     0.12800
H793        H  0.50146923  0.62020912  0.26604471     0.12300
H794        H  0.46998701  0.63881310  0.28770986     0.12500
H795        H  0.50896766  0.56533889  0.25535121     0.15300
H796        H  0.43640477  0.52326118  0.23613699     0.14000
H797        H  0.39760876  0.58191438  0.31810972     0.11700
H798        H  0.40529692  0.63355627  0.28653234     0.13700
C799        C  0.38210127  0.76938487  0.08772635     0.19800
C800        C  0.37473343  0.76592041  0.06848721    -0.18300
C801        C  0.39245002  0.79513717  0.05650588    -0.10600
C802        C  0.41750570  0.82852277  0.06356805     0.22100
C803        C  0.42507841  0.83191921  0.08284105    -0.19900
C804        C  0.40729514  0.80284046  0.09480067    -0.10700
C805        C  0.43512059  0.85922019  0.05053344    -0.14900
C806        C  0.44861115  0.89309822  0.05618281    -0.28800
C807        C  0.36234243  0.73790641  0.10001238    -0.03000
C808        C  0.37369057  0.73507665  0.11712115    -0.39600
H809        H  0.35527295  0.74050198  0.06270418     0.13200
H810        H  0.38620657  0.79177320  0.04171761     0.12800
H811        H  0.44488223  0.85687601  0.08882829     0.12300
H812        H  0.41310693  0.80708177  0.10957450     0.12500
H813        H  0.43527502  0.85370285  0.03575051     0.15300
H814        H  0.44665500  0.89896257  0.07069299     0.14000
H815        H  0.33742790  0.71628902  0.09476245     0.11700
H816        H  0.39866677  0.75592711  0.12262166     0.13700
C817        C  0.16388909  0.60369553  0.06970351     0.19800
C818        C  0.19794069  0.60908281  0.06629548    -0.18300
C819        C  0.22380323  0.62238489  0.08031777    -0.10600
C820        C  0.21604129  0.63066124  0.09805274     0.22100
C821        C  0.18265936  0.62722813  0.10111313    -0.19900
C822        C  0.15674058  0.61380818  0.08710216    -0.10700
C823        C  0.24244482  0.64337212  0.11344679    -0.14900
C824        C  0.26672403  0.63293611  0.11504751    -0.28800
C825        C  0.13634105  0.58714334  0.05495907    -0.03000
C826        C  0.10184584  0.56694291  0.05912868    -0.39600
H827        H  0.20430774  0.60223783  0.05288661     0.13200
H828        H  0.24984634  0.62628628  0.07717579     0.12800
H829        H  0.17639858  0.63425621  0.11450094     0.12300
H830        H  0.13121555  0.61145631  0.08994950     0.12500
H831        H  0.24163645  0.66121348  0.12380724     0.15300
H832        H  0.26785988  0.61517972  0.10479014     0.14000
H833        H  0.14478561  0.58978223  0.04049768     0.11700
H834        H  0.09348142  0.56251700  0.07362212     0.13700
C835        C  0.41335116  0.57199829  0.07385207     0.19800
C836        C  0.41830280  0.57611822  0.09329307    -0.18300
C837        C  0.40163790  0.59078743  0.10374600    -0.10600
C838        C  0.37968114  0.60187237  0.09490596     0.22100
C839        C  0.37448322  0.59756497  0.07554306    -0.19900
C840        C  0.39117388  0.58298582  0.06508101    -0.10700
C841        C  0.36058144  0.61666571  0.10537605    -0.14900
C842        C  0.37131539  0.63279936  0.12202860    -0.28800
C843        C  0.43176848  0.55608376  0.06351218    -0.03000
C844        C  0.42969321  0.55086546  0.04490000    -0.39600
H845        H  0.43497368  0.56769922  0.10048283     0.13200
H846        H  0.40543835  0.59259355  0.11873512     0.12800
H847        H  0.35747814  0.60566736  0.06843938     0.12300
H848        H  0.38625335  0.58046052  0.05022436     0.12500
H849        H  0.33677874  0.61434049  0.09894473     0.15300
H850        H  0.39522555  0.63575020  0.12857098     0.14000
H851        H  0.44829522  0.54862417  0.07169248     0.11700
H852        H  0.41392757  0.55817693  0.03610134     0.13700
C853        C  0.43501184  0.57365926  0.19103709     0.19800
C854        C  0.43775843  0.60664671  0.19507656    -0.18300
C855        C  0.41583011  0.61736179  0.18610842    -0.10600
C856        C  0.39022412  0.59495751  0.17299288     0.22100
C857        C  0.38720928  0.56178374  0.16915557    -0.19900
C858        C  0.40911179  0.55109972  0.17810901    -0.10700
C859        C  0.36781392  0.60572240  0.16201403    -0.14900
C860        C  0.36670719  0.63594727  0.16463673    -0.28800
C861        C  0.45826764  0.56304211  0.20129463    -0.03000
C862        C  0.46357540  0.53626843  0.19593038    -0.39600
H863        H  0.45720557  0.62438859  0.20511541     0.13200
H864        H  0.41967014  0.64339233  0.18934945     0.12800
H865        H  0.36784485  0.54400679  0.15909295     0.12300
H866        H  0.40512547  0.52494514  0.17499903     0.12500
H867        H  0.35236552  0.58838147  0.15060408     0.15300
H868        H  0.37873669  0.65230627  0.17684393     0.14000
H869        H  0.47178595  0.57821067  0.21366493     0.11700
H870        H  0.45368306  0.52357685  0.18252240     0.13700
C871        C  0.13272536  0.57368869  0.18589326     0.19800
C872        C  0.15961487  0.60946741  0.18647605    -0.18300
C873        C  0.19095250  0.62120825  0.17634831    -0.10600
C874        C  0.19642657  0.59716457  0.16563668     0.22100
C875        C  0.16939301  0.56141831  0.16492182    -0.19900
C876        C  0.13797930  0.54969168  0.17501420    -0.10700
C877        C  0.22944500  0.60859978  0.15468275    -0.14900
C878        C  0.26057784  0.63778068  0.15881918    -0.28800
C879        C  0.10049593  0.56207580  0.19752574    -0.03000
C880        C  0.06906816  0.53299151  0.19381072    -0.39600
H881        H  0.15626167  0.62850118  0.19472424     0.13200
H882        H  0.21053656  0.64920188  0.17679922     0.12800
H883        H  0.17282243  0.54235268  0.15674694     0.12300
H884        H  0.11831962  0.52171004  0.17458674     0.12500
H885        H  0.22832949  0.59162689  0.14329045     0.15300
H886        H  0.26297841  0.65257884  0.17143135     0.14000
H887        H  0.10254655  0.57856838  0.20937871     0.11700
H888        H  0.06543928  0.51852590  0.18091032     0.13700
C889        C  0.39571446  0.80393790  0.16532661     0.19800
C890        C  0.40050720  0.83596320  0.15753509    -0.18300
C891        C  0.42152418  0.86855900  0.16653636    -0.10600
C892        C  0.43829154  0.86984459  0.18364951     0.22100
C893        C  0.43361534  0.83791099  0.19139111    -0.19900
C894        C  0.41260855  0.80539843  0.18244857    -0.10700
C895        C  0.46050249  0.90335466  0.19418214    -0.14900
C896        C  0.46062905  0.93426036  0.19134057    -0.28800
C897        C  0.37396428  0.77016790  0.15478050    -0.03000
C898        C  0.36942758  0.73813147  0.15997169    -0.39600
H899        H  0.38818269  0.83583601  0.14429402     0.13200
H900        H  0.42478506  0.89247703  0.15986417     0.12800
H901        H  0.44612387  0.83803646  0.20457231     0.12300
H902        H  0.41005038  0.78184493  0.18916881     0.12500
H903        H  0.47627579  0.90190020  0.20565324     0.15300
H904        H  0.44667901  0.93757075  0.17957871     0.14000
H905        H  0.36163279  0.77201401  0.14188744     0.11700
H906        H  0.37901380  0.73461297  0.17335140     0.13700
C907        C  0.34127707  0.92392042  0.95021740     0.19800
C908        C  0.33008900  0.94299110  0.93875881    -0.18300
C909        C  0.29887151  0.92531630  0.92822712    -0.10600
C910        C  0.27799268  0.88799635  0.92900412     0.22100
C911        C  0.28870676  0.86898085  0.94081824    -0.19900
C912        C  0.32004270  0.88665316  0.95128478    -0.10700
C913        C  0.24463626  0.86801933  0.91804666    -0.14900
C914        C  0.23791279  0.88029259  0.90209943    -0.28800
C915        C  0.37415810  0.94411099  0.96150481    -0.03000
C916        C  0.39332371  0.92999759  0.96861462    -0.39600
H917        H  0.34559133  0.97176009  0.93795462     0.13200
H918        H  0.29096636  0.94108104  0.91980163     0.12800
H919        H  0.27281723  0.84027341  0.94190037     0.12300
H920        H  0.32702379  0.87106069  0.96043617     0.12500
H921        H  0.22601553  0.84108157  0.92257679     0.15300
H922        H  0.25744476  0.90587573  0.89645799     0.14000
H923        H  0.38328091  0.97217105  0.96378971     0.11700
H924        H  0.38575427  0.90248472  0.96588574     0.13700
C925        C  0.09279926  0.66406329  0.95202728     0.19800
C926        C  0.12197956  0.67462973  0.94018129    -0.18300
C927        C  0.13460086  0.70559956  0.92935988    -0.10600
C928        C  0.11838203  0.72679596  0.93037086     0.22100
C929        C  0.08984493  0.71669850  0.94260386    -0.19900
C930        C  0.07707467  0.68565134  0.95328193    -0.10700
C931        C  0.13067554  0.75987804  0.91922880    -0.14900
C932        C  0.14735621  0.76562331  0.90277134    -0.28800
C933        C  0.08020495  0.63126701  0.96346706    -0.03000
C934        C  0.04624919  0.61146443  0.96888139    -0.39600
H935        H  0.13491326  0.65876069  0.93922769     0.13200
H936        H  0.15735035  0.71309597  0.92051511     0.12800
H937        H  0.07722659  0.73282467  0.94383597     0.12300
H938        H  0.05535985  0.67906456  0.96276317     0.12500
H939        H  0.12307882  0.77894771  0.92401973     0.15300
H940        H  0.15246057  0.74554877  0.89689286     0.14000
H941        H  0.09919633  0.62271790  0.96710216     0.11700
H942        H  0.02661702  0.61851981  0.96429887     0.13700
C943        C  0.08186109  0.91276939  0.95560277     0.19800
C944        C  0.06250706  0.88327155  0.94394520    -0.18300
C945        C  0.07982868  0.87089519  0.93233697    -0.10600
C946        C  0.11710069  0.88774861  0.93219160     0.22100
C947        C  0.13645857  0.91665699  0.94420897    -0.19900
C948        C  0.11913077  0.92912821  0.95577679    -0.10700
C949        C  0.13669057  0.87552264  0.92010619    -0.14900
C950        C  0.12332644  0.85710654  0.90420836    -0.28800
C951        C  0.06204975  0.92502324  0.96753596    -0.03000
C952        C  0.07623722  0.95810949  0.97461945    -0.39600
H953        H  0.03378298  0.86981652  0.94373569     0.13200
H954        H  0.06384113  0.84781409  0.92377178     0.12800
H955        H  0.16516540  0.92978321  0.94458723     0.12300
H956        H  0.13506202  0.95116405  0.96497934     0.12500
H957        H  0.16407862  0.88403227  0.92380803     0.15300
H958        H  0.09713948  0.85082332  0.89936501     0.14000
H959        H  0.03404664  0.90647971  0.96979599     0.11700
H960        H  0.10366890  0.97768993  0.97184060     0.13700
C961        C  0.09358297  0.89651736  0.85519360     0.19800
C962        C  0.09392860  0.92766325  0.86092318    -0.18300
C963        C  0.07279233  0.93932017  0.85199549    -0.10600
C964        C  0.05077734  0.92018103  0.83689367     0.22100
C965        C  0.04964446  0.88848818  0.83142109    -0.19900
C966        C  0.07077009  0.87670037  0.84043063    -0.10700
C967        C  0.02891807  0.93249013  0.82649310    -0.14900
C968        C  0.03624360  0.96660826  0.82625136    -0.28800
C969        C  0.11669794  0.88569540  0.86553915    -0.03000
C970        C  0.12111542  0.85788111  0.86119593    -0.39600
H971        H  0.11064282  0.94313911  0.87246595     0.13200
H972        H  0.07363240  0.96311070  0.85721463     0.12800
H973        H  0.03263808  0.87298256  0.81997146     0.12300
H974        H  0.06886584  0.85211442  0.83575944     0.12500
H975        H  0.00705232  0.91316280  0.81799768     0.15300
H976        H  0.05740218  0.98650544  0.83477945     0.14000
H977        H  0.13136811  0.90204446  0.87739507     0.11700
H978        H  0.10976852  0.84289245  0.84850999     0.13700
C979        C  0.09489597  0.70092129  0.85366342     0.19800
C980        C  0.07981700  0.66780802  0.86279552    -0.18300
C981        C  0.06311661  0.63607740  0.85262777    -0.10600
C982        C  0.06061034  0.63685512  0.83305296     0.22100
C983        C  0.07532875  0.67002684  0.82393445    -0.19900
C984        C  0.09262370  0.70179866  0.83409637    -0.10700
C985        C  0.04152021  0.60380571  0.82177238    -0.14900
C986        C  0.03901935  0.57242696  0.82662552    -0.28800
C987        C  0.11049097  0.73373833  0.86512944    -0.03000
C988        C  0.13872153  0.76492162  0.85995701    -0.39600
H989        H  0.08085841  0.66651574  0.87789701     0.13200
H990        H  0.05128522  0.61109724  0.86018946     0.12800
H991        H  0.07337097  0.67133435  0.80887968     0.12300
H992        H  0.10315269  0.72689688  0.82669753     0.12500
H993        H  0.02973222  0.60585860  0.80873855     0.15300
H994        H  0.04971778  0.56982661  0.83990997     0.14000
H995        H  0.09823054  0.73161657  0.87857797     0.11700
H996        H  0.15017233  0.76757583  0.84620805     0.13700
C997        C  0.30091683  0.90463590  0.85256946     0.19500
C998        C  0.33233892  0.90732612  0.85976684    -0.18300
C999        C  0.36487505  0.92837682  0.85096133    -0.10600
C1000       C  0.36690083  0.94723292  0.83448230     0.22100
C1001       C  0.33554560  0.94497332  0.82738046    -0.19900
C1002       C  0.30290267  0.92397140  0.83627628    -0.10700
C1003       C  0.40067890  0.96867972  0.82400331    -0.14900
C1004       C  0.43019035  0.96623420  0.82671226    -0.28800
C1005       C  0.26733234  0.88176639  0.86288735    -0.03000
C1006       C  0.23557669  0.87915643  0.85928292    -0.39600
H1007       H  0.33180054  0.89313897  0.87240833     0.13200
H1008       H  0.38813618  0.92973448  0.85732802     0.12800
H1009       H  0.33621197  0.95915746  0.81471645     0.12300
H1010       H  0.27954832  0.92288574  0.83018113     0.12500
H1011       H  0.40057110  0.98567451  0.81278761     0.15300
H1012       H  0.43198784  0.95075191  0.83816311     0.14000
H1013       H  0.26912022  0.86655612  0.87457047     0.11700
H1014       H  0.23160263  0.89170883  0.84707790     0.13700
C1015       C  0.36908828  0.92946388  0.77234820     0.19800
C1016       C  0.34492513  0.89314502  0.76989009    -0.18300
C1017       C  0.31599399  0.88209508  0.75771869    -0.10600
C1018       C  0.31064794  0.90734160  0.74783667     0.22100
C1019       C  0.33375121  0.94363106  0.75109812    -0.19900
C1020       C  0.36264317  0.95464161  0.76320247    -0.10700
C1021       C  0.28140187  0.89715439  0.73409892    -0.14900
C1022       C  0.26574714  0.86591336  0.72496605    -0.28800
C1023       C  0.40030550  0.94041959  0.78479004    -0.03000
C1024       C  0.43025771  0.97180919  0.78278296    -0.39600
H1025       H  0.34876877  0.87326545  0.77717470     0.13200
H1026       H  0.29790877  0.85386406  0.75620691     0.12800
H1027       H  0.32977110  0.96360496  0.74401010     0.12300
H1028       H  0.37968383  0.98289313  0.76542251     0.12500
H1029       H  0.27382368  0.91699560  0.73062425     0.15300
H1030       H  0.27373460  0.84617373  0.72767240     0.14000
H1031       H  0.39900799  0.92193708  0.79552777     0.11700
H1032       H  0.43335392  0.98851536  0.77076586     0.13700
C1033       C  0.05015812  0.60559391  0.75446991     0.19800
C1034       C  0.03129289  0.61372429  0.74118271    -0.18300
C1035       C  0.04886252  0.64358814  0.72963171    -0.10600
C1036       C  0.08581198  0.66581511  0.73111315     0.22100
C1037       C  0.10483091  0.65693686  0.74392113    -0.19900
C1038       C  0.08725191  0.62719696  0.75553184    -0.10700
C1039       C  0.10557002  0.69803186  0.71935766    -0.14900
C1040       C  0.09095775  0.71658767  0.71207453    -0.28800
C1041       C  0.03037770  0.57400026  0.76665055    -0.03000
C1042       C  0.04210617  0.57073200  0.78356477    -0.39600
H1043       H  0.00279254  0.59708353  0.73985553     0.13200
H1044       H  0.03347607  0.64884189  0.71944724     0.12800
H1045       H  0.13339314  0.67328995  0.74507716     0.12300
H1046       H  0.10288598  0.62103689  0.76509585     0.12500
H1047       H  0.13379551  0.70797736  0.71753611     0.15300
H1048       H  0.06331560  0.70833016  0.71460624     0.14000
H1049       H  0.50400713  0.55742556  0.76422134     0.11700
H1050       H  0.06680936  0.59203168  0.78911554     0.13700
C1051       C  0.07295541  0.90808182  0.73229471     0.19800
C1052       C  0.04713095  0.89080009  0.74609137    -0.18300
C1053       C  0.03572802  0.90988365  0.75701383    -0.10600
C1054       C  0.04966674  0.94667572  0.75416931     0.22100
C1055       C  0.07431627  0.96363372  0.73980984    -0.19900
C1056       C  0.08607615  0.94463648  0.72904837    -0.10700
C1057       C  0.03812658  0.96764188  0.76560948    -0.14900
C1058       C  0.02910054  0.96000132  0.78369072    -0.28800
C1059       C  0.08524075  0.88723067  0.72131791    -0.03000
C1060       C  0.11856642  0.90156915  0.71483518    -0.39600
H1061       H  0.03613679  0.86254466  0.74861129     0.13200
H1062       H  0.01568547  0.89568696  0.76750480     0.12800
H1063       H  0.08486247  0.99176471  0.73708782     0.12300
H1064       H  0.10508861  0.95851711  0.71806774     0.12500
H1065       H  0.03883785  0.99076395  0.75917241     0.15300
H1066       H  0.03222080  0.93903596  0.79012289     0.14000
H1067       H  0.06696875  0.85897833  0.71937337     0.11700
H1068       H  0.13761457  0.92921448  0.71781413     0.13700
C1069       C  0.23220509  0.72909525  0.40308077     0.19800
C1070       C  0.20830949  0.71372965  0.41790605    -0.18300
C1071       C  0.19870840  0.73443218  0.42879204    -0.10600
C1072       C  0.21266675  0.77096941  0.42491304     0.22100
C1073       C  0.23520532  0.78583003  0.40953061    -0.19900
C1074       C  0.24493050  0.76524005  0.39875242    -0.10700
C1075       C  0.20378048  0.79425562  0.43621834    -0.14900
C1076       C  0.19393014  0.78777188  0.45423200    -0.28800
C1077       C  0.24383855  0.70727503  0.39236948    -0.03000
C1078       C  0.27686059  0.72190041  0.38549316    -0.39600
H1079       H  0.19760926  0.68582485  0.42130129     0.13200
H1080       H  0.18014354  0.72161620  0.44007565     0.12800
H1081       H  0.24573348  0.81365175  0.40597315     0.12300
H1082       H  0.26231342  0.77769519  0.38696656     0.12500
H1083       H  0.20750601  0.81864845  0.42975016     0.15300
H1084       H  0.19266564  0.76478858  0.46112589     0.14000
H1085       H  0.22580361  0.67887911  0.39086549     0.11700
H1086       H  0.29533322  0.74983593  0.38818583     0.13700
C1087       C  0.06103728  0.77596741  0.42468618     0.19800
C1088       C  0.05160547  0.79320435  0.41105214    -0.18300
C1089       C  0.02174594  0.77382798  0.39981458    -0.10600
C1090       C  0.49935449  0.73335277  0.40245204     0.22100
C1091       C  0.01116689  0.71922716  0.41499094    -0.19900
C1092       C  0.04093410  0.73865938  0.42633817    -0.10700
C1093       C  0.46640529  0.71204228  0.39150102    -0.14900
C1094       C  0.44649768  0.72614787  0.38578403    -0.28800
C1095       C  0.09250248  0.79759293  0.43656030    -0.03000
C1096       C  0.09608861  0.78771940  0.45388791    -0.39600
H1097       H  0.06713024  0.82181262  0.40925618     0.13200
H1098       H  0.51531304  0.78335187  0.38800976     0.12800
H1099       H  0.49286040  0.68848600  0.41893729     0.12300
H1100       H  0.04828722  0.72435403  0.43621084     0.12500
H1101       H  0.45768574  0.68419762  0.38880738     0.15300
H1102       H  0.45425116  0.75335182  0.38955159     0.14000
H1103       H  0.11240030  0.82340228  0.43123824     0.11700
H1104       H  0.07493992  0.76347989  0.45995767     0.13700
C1105       C  0.23898768  0.49701217  0.40168380     0.19800
C1106       C  0.21236854  0.98613115  0.41463133    -0.18300
C1107       C  0.20093576  0.95547823  0.42559291    -0.10600
C1108       C  0.21905771  0.93606325  0.42514181     0.22100
C1109       C  0.24813235  0.94737323  0.41317114    -0.19900
C1110       C  0.25972909  0.97814155  0.40231739    -0.10700
C1111       C  0.20781325  0.90352787  0.43663047    -0.14900
C1112       C  0.19301586  0.89924498  0.45355116    -0.28800
C1113       C  0.25125979  0.53030178  0.39050730    -0.03000
C1114       C  0.28439203  0.54911047  0.38368500    -0.39600
H1115       H  0.19897008  0.50339682  0.41618018     0.13200
H1116       H  0.17764719  0.94678960  0.43419202     0.12800
H1117       H  0.26213951  0.93251599  0.41234456     0.12300
H1118       H  0.27418803  0.48054056  0.38934457     0.12500
H1119       H  0.21409315  0.88366167  0.43158252     0.15300
H1120       H  0.18945736  0.92036053  0.45937813     0.14000
H1121       H  0.23300138  0.54043459  0.38856249     0.11700
H1122       H  0.30342074  0.54024345  0.38641462     0.13700
C1123       C  0.27056582  0.70496319  0.60022183     0.19800
C1124       C  0.25701735  0.68921148  0.61768910    -0.18300
C1125       C  0.24355687  0.70442662  0.63004340    -0.10600
C1126       C  0.24291195  0.73549736  0.62511623     0.22100
C1127       C  0.25678649  0.75157227  0.60771110    -0.19900
C1128       C  0.27024294  0.73639590  0.59535394    -0.10700
C1129       C  0.22833051  0.75094739  0.63851656    -0.14900
C1130       C  0.21387323  0.77060965  0.63285248    -0.28800
C1131       C  0.28462783  0.68752881  0.58774975    -0.03000
C1132       C  0.30132530  0.70105001  0.57146221    -0.39600
H1133       H  0.25694288  0.66503424  0.62184538     0.13200
H1134       H  0.23328627  0.69168901  0.64341258     0.12800
H1135       H  0.25787221  0.77623069  0.60365020     0.12300
H1136       H  0.28018847  0.74959267  0.58211252     0.12500
H1137       H  0.22863351  0.74521065  0.65330204     0.15300
H1138       H  0.21169760  0.77481165  0.61804592     0.14000
H1139       H  0.28077321  0.66187663  0.59225247     0.11700
H1140       H  0.30508808  0.72613975  0.56611966     0.13700
C1141       C  0.00390865  0.78074031  0.61728138     0.19800
C1142       C  0.47032784  0.74516898  0.62261265    -0.18300
C1143       C  0.44426912  0.73124875  0.60872928    -0.10600
C1144       C  0.45077091  0.74716333  0.59089146     0.22100
C1145       C  0.48300173  0.77832183  0.58759683    -0.19900
C1146       C  0.01128972  0.79447287  0.59892539    -0.10700
C1147       C  0.42409652  0.73214427  0.57568087    -0.14900
C1148       C  0.40104152  0.69718488  0.57457166    -0.28800
C1149       C  0.03175279  0.79206984  0.63192696    -0.03000
C1150       C  0.06591557  0.80391488  0.62777968    -0.39600
H1151       H  0.46498186  0.73197927  0.63608642     0.13200
H1152       H  0.41904768  0.70815596  0.61208397     0.12800
H1153       H  0.48822711  0.79150746  0.57412586     0.12300
H1154       H  0.03731977  0.81581694  0.59513106     0.12500
H1155       H  0.42351716  0.75001173  0.56510504     0.15300
H1156       H  0.40129470  0.67892303  0.58494925     0.14000
H1157       H  0.02353311  0.78775683  0.64646507     0.11700
H1158       H  0.07422130  0.80671097  0.61331197     0.13700
C1159       C  0.27053312  0.01037070  0.63074754     0.19800
C1160       C  0.28476027  0.50914854  0.61302847    -0.18300
C1161       C  0.29391889  0.53641899  0.60001178    -0.10600
C1162       C  0.28522017  0.56323386  0.60322757     0.22100
C1163       C  0.26892260  0.56312619  0.62012850    -0.19900
C1164       C  0.26378029  0.03823778  0.63427421    -0.10700
C1165       C  0.29354019  0.59246951  0.58979994    -0.14900
C1166       C  0.30483470  0.59382440  0.57220788    -0.28800
C1167       C  0.25679933  0.98003263  0.64393173    -0.03000
C1168       C  0.24421727  0.94671342  0.63775079    -0.39600
H1169       H  0.29160680  0.48874973  0.61015488     0.13200
H1170       H  0.30781580  0.53618617  0.58760794     0.12800
H1171       H  0.26257945  0.58386458  0.62313021     0.12300
H1172       H  0.25071294  0.03864751  0.64703505     0.12500
H1173       H  0.28952316  0.61380661  0.59473735     0.15300
H1174       H  0.30678369  0.57181495  0.56641026     0.14000
H1175       H  0.25244043  0.98446536  0.65836887     0.11700
H1176       H  0.24580957  0.94191051  0.62300958     0.13700
C1177       C  0.26274231  0.72564590  0.52147954     0.19800
C1178       C  0.23372772  0.72784053  0.52839812    -0.18300
C1179       C  0.22230456  0.74936876  0.51965926    -0.10600
C1180       C  0.23969845  0.76928948  0.50362627     0.22100
C1181       C  0.26881975  0.76720609  0.49674768    -0.19900
C1182       C  0.28024666  0.74565450  0.50549472    -0.10700
C1183       C  0.22790907  0.79146739  0.49315627    -0.14900
C1184       C  0.19818905  0.79270104  0.49685759    -0.28800
C1185       C  0.27396397  0.70286086  0.53176384    -0.03000
C1186       C  0.30418555  0.70228716  0.52859491    -0.39600
H1187       H  0.21987107  0.71294346  0.54074950     0.13200
H1188       H  0.19990317  0.75001390  0.52566350     0.12800
H1189       H  0.28262989  0.78205561  0.48437791     0.12300
H1190       H  0.30253789  0.74479622  0.49947695     0.12500
H1191       H  0.24379211  0.80649215  0.48124599     0.15300
H1192       H  0.18255034  0.78004044  0.50915489     0.14000
H1193       H  0.25701007  0.68664595  0.54309301     0.11700
H1194       H  0.32097768  0.71626467  0.51683961     0.13700
C1195       C  0.23827855  0.96387880  0.50338962     0.19800
C1196       C  0.27179277  0.49263935  0.50010421    -0.18300
C1197       C  0.28445954  0.52486275  0.50965161    -0.10600
C1198       C  0.26218998  0.53019732  0.52182235     0.22100
C1199       C  0.22727790  0.50234402  0.52437602    -0.19900
C1200       C  0.21618442  0.96903954  0.51577159    -0.10700
C1201       C  0.27462774  0.56350534  0.53278089    -0.14900
C1202       C  0.30434267  0.59449266  0.52904885    -0.28800
C1203       C  0.22568084  0.93052925  0.49239256    -0.03000
C1204       C  0.19627725  0.89940696  0.49638994    -0.39600
H1205       H  0.28949026  0.48934748  0.49076943     0.13200
H1206       H  0.31182000  0.54511511  0.50763418     0.12800
H1207       H  0.20957011  0.50561043  0.53371619     0.12300
H1208       H  0.18897329  0.94859540  0.51800705     0.12500
H1209       H  0.25823408  0.56250836  0.54442322     0.15300
H1210       H  0.31917386  0.59753160  0.51640174     0.14000
H1211       H  0.24161577  0.93162000  0.48050515     0.11700
H1212       H  0.18201079  0.89638219  0.50924995     0.13700
C1213       C  0.03283643  0.76773878  0.50439765     0.19800
C1214       C  0.00560560  0.77621860  0.50301167    -0.18300
C1215       C  0.47380499  0.75568764  0.51231968    -0.10600
C1216       C  0.46984423  0.72822498  0.52447315     0.22100
C1217       C  0.49841813  0.72198395  0.52683494    -0.19900
C1218       C  0.02763226  0.73892865  0.51583493    -0.10700
C1219       C  0.43697889  0.70657097  0.53543700    -0.14900
C1220       C  0.40530424  0.70288345  0.53065517    -0.28800
C1221       C  0.06537712  0.78846732  0.49302029    -0.03000
C1222       C  0.09661415  0.79013420  0.49672336    -0.39600
H1223       H  0.00889226  0.79824028  0.49431173     0.13200
H1224       H  0.45293622  0.76224073  0.51054740     0.12800
H1225       H  0.49615190  0.70114888  0.53617884     0.12300
H1226       H  0.04752667  0.73087549  0.51690724     0.12500
H1227       H  0.43886887  0.69246781  0.54759394     0.15300
H1228       H  0.40218529  0.71331906  0.51739836     0.14000
H1229       H  0.06371544  0.80363748  0.48127694     0.11700
H1230       H  0.10008455  0.77852877  0.50948581     0.13700
C1231       C  0.83229130  0.16202653  0.57014430     0.46600
H1232       H  0.83257264  0.16242637  0.58561977    -0.02500
C1233       C  0.83535076  0.16404391  0.53394888     0.46600
H1234       H  0.83663370  0.16491214  0.51843398    -0.02500
C1235       C  0.87003940  0.18241137  0.56255689    -0.16100
C1236       C  0.81608612  0.12500010  0.56129736    -0.15900
C1237       C  0.81291413  0.18004197  0.56125766    -0.16300
C1238       C  0.87203156  0.18376146  0.54339235    -0.16300
C1239       C  0.81740054  0.12592250  0.54207804    -0.15800
C1240       C  0.81468678  0.18124535  0.54203852    -0.16100
C1241       C  0.66736306  0.33050291  0.49308506     0.46600
H1242       H  0.66804985  0.33093506  0.50861650    -0.02500
C1243       C  0.66560449  0.32932153  0.45678182     0.46600
H1244       H  0.66434499  0.32863166  0.44134506    -0.02500
C1245       C  0.68665337  0.31234744  0.48453253    -0.16100
C1246       C  0.62962085  0.31020510  0.48503098    -0.15900
C1247       C  0.68424001  0.36770569  0.48413389    -0.16300
C1248       C  0.68532898  0.31115093  0.46529362    -0.16300
C1249       C  0.62868790  0.30940558  0.46583149    -0.15800
C1250       C  0.68315189  0.36715292  0.46491310    -0.16100
Zn1251     Zn  0.68142662  0.30126135  0.68562366     1.49700
Zn1252     Zn  0.66862130  0.33631093  0.64989310     1.49400
Zn1253     Zn  0.61716229  0.31935652  0.68460301     1.49100
Zn1254     Zn  0.69803224  0.38213939  0.68728480     1.49500
O1255       O  0.66621524  0.33476858  0.67702018    -1.83000
O1256       O  0.69688689  0.28093548  0.66439570    -0.73600
O1257       O  0.62213257  0.32435159  0.63822708    -0.73500
O1258       O  0.59718475  0.27340557  0.69917474    -0.73000
O1259       O  0.68355315  0.30297409  0.63952186    -0.73700
O1260       O  0.64106828  0.26074664  0.69895605    -0.73300
O1261       O  0.58511109  0.31054204  0.66210877    -0.73800
O1262       O  0.67082072  0.40075087  0.70174168    -0.73200
O1263       O  0.70391388  0.38459185  0.64096046    -0.74000
O1264       O  0.61490809  0.35668103  0.70070178    -0.73400
O1265       O  0.72455163  0.41738696  0.66664256    -0.73800
O1266       O  0.73359925  0.38063063  0.70504858    -0.73800
O1267       O  0.72206668  0.32452566  0.70392834    -0.73500
C1268       C  0.69513809  0.28378790  0.64673771     0.78200
C1269       C  0.59133893  0.31413600  0.64461938     0.78700
C1270       C  0.60978912  0.25326369  0.70352545     0.77700
C1271       C  0.63829336  0.38770296  0.70603793     0.78100
C1272       C  0.72377939  0.41410017  0.64893570     0.79200
C1273       C  0.73984731  0.35602564  0.71027424     0.78300
C1274       C  0.49867934  0.00191081  0.78656602     0.46600
H1275       H  0.49802022  0.00191359  0.77106700    -0.02500
C1276       C  0.49958386  0.00150623  0.82286619     0.46600
H1277       H  0.50004555  0.00129530  0.83839798    -0.02500
C1278       C  0.96346997  0.48496769  0.79580416    -0.16100
C1279       C  0.51697982  0.48242566  0.79682229    -0.15900
C1280       C  0.51852900  0.03923128  0.79519577    -0.16300
C1281       C  0.96317087  0.48501313  0.81505994    -0.16300
C1282       C  0.51608787  0.48180901  0.81602975    -0.15800
C1283       C  0.51879661  0.03923581  0.81441384    -0.16100
C1284       C  0.66604319  0.33396816  0.86294510     0.46600
H1285       H  0.66486681  0.33371809  0.84742560    -0.02500
C1286       C  0.66874224  0.33466417  0.89926926     0.46600
H1287       H  0.66982780  0.33501264  0.91475875    -0.02500
C1288       C  0.64393143  0.34872426  0.87199029    -0.16100
C1289       C  0.65190921  0.29669532  0.87170211    -0.15900
C1290       C  0.70389853  0.35687572  0.87089250    -0.16300
C1291       C  0.64530325  0.34896678  0.89120898    -0.16300
C1292       C  0.65404624  0.29732438  0.89090985    -0.15800
C1293       C  0.70508371  0.35718315  0.89011148    -0.16100
C1294       C  0.83469672  0.16692680  0.12253908     0.46600
H1295       H  0.83674890  0.16580026  0.10714709    -0.02500
C1296       C  0.83030083  0.16960290  0.15860572     0.46600
H1297       H  0.82860779  0.17072752  0.17405527    -0.02500
C1298       C  0.79661121  0.15073420  0.12953017    -0.16100
C1299       C  0.85085964  0.14742383  0.13308166    -0.15900
C1300       C  0.85410003  0.20501631  0.13036649    -0.16300
C1301       C  0.79390493  0.15204097  0.14865503    -0.16300
C1302       C  0.84865915  0.14886146  0.15218243    -0.15800
C1303       C  0.85165692  0.20639424  0.14946518    -0.16100
C1304       C  0.99989359  0.50374761  0.19756381     0.46600
H1305       H  0.99960109  0.50520284  0.18205399    -0.02500
C1306       C  0.00040624  0.50012868  0.23382681     0.46600
H1307       H  0.99955431  0.49786102  0.24927616    -0.02500
C1308       C  0.98509192  0.02498728  0.20672128    -0.16100
C1309       C  0.98042910  0.46555319  0.20506659    -0.15900
C1310       C  0.53574270  0.02069574  0.20571646    -0.16300
C1311       C  0.98510838  0.02361375  0.22594480    -0.16300
C1312       C  0.98069634  0.46360809  0.22422456    -0.15800
C1313       C  0.53588007  0.01843687  0.22496602    -0.16100
Zn1314     Zn  0.86048147  0.14444540  0.35299823     1.49700
Zn1315     Zn  0.78284222  0.13900104  0.35364076     1.49400
Zn1316     Zn  0.85441789  0.21432966  0.35581316     1.49100
Zn1317     Zn  0.83438290  0.17218045  0.31801230     1.49500
O1318       O  0.83267005  0.16695152  0.34516998    -1.83000
O1319       O  0.82904476  0.09957997  0.36739956    -0.73600
O1320       O  0.76946675  0.16917690  0.37011671    -0.73500
O1321       O  0.89408126  0.22339403  0.37304734    -0.73000
O1322       O  0.77569276  0.09523001  0.36831567    -0.73700
O1323       O  0.90204781  0.17678429  0.36985384    -0.73300
O1324       O  0.81949659  0.22129736  0.36999498    -0.73800
O1325       O  0.86122325  0.22350911  0.30968961    -0.73200
O1326       O  0.74911321  0.12303793  0.33117103    -0.74000
O1327       O  0.87491075  0.25282205  0.33650401    -0.73400
O1328       O  0.78528792  0.14977984  0.30721004    -0.73800
O1329       O  0.85922329  0.14845761  0.30654652    -0.73800
O1330       O  0.87970047  0.13099964  0.33057786    -0.73500
C1331       C  0.79667974  0.08341232  0.37245005     0.78200
C1332       C  0.78738276  0.20189719  0.37477954     0.78700
C1333       C  0.91101053  0.20717708  0.37680775     0.77700
C1334       C  0.87584289  0.25253715  0.31879832     0.78100
C1335       C  0.75428296  0.13056470  0.31377924     0.79200
C1336       C  0.87644585  0.13404687  0.31304124     0.78300
Zn1337     Zn  0.55176392  0.03315663  0.00614777     1.49700
Zn1338     Zn  0.99849489  0.00322194  0.03877608     1.49400
Zn1339     Zn  0.97399968  0.02087383  0.00036736     1.49100
Zn1340     Zn  0.98296473  0.45145868  0.00355269     1.49500
O1341       O  0.00258610  0.00210687  0.01162839    -1.83000
O1342       O  0.58128917  0.05424787  0.02958051    -0.73600
O1343       O  0.96787513  0.02380944  0.04678753    -0.73500
O1344       O  0.50359619  0.06267441  0.98382867    -0.73000
O1345       O  0.54148906  0.03272190  0.05238400    -0.73700
O1346       O  0.55875315  0.07393217  0.98917383    -0.73300
O1347       O  0.95196502  0.03738518  0.01979716    -0.73800
O1348       O  0.93928842  0.43400366  0.98719544    -0.73200
O1349       O  0.97463561  0.45259054  0.04972736    -0.74000
O1350       O  0.93167653  0.48106661  0.98471627    -0.73400
O1351       O  0.96943236  0.41794243  0.02571516    -0.73800
O1352       O  0.52433849  0.45016210  0.98863246    -0.73800
O1353       O  0.57045855  0.50518982  0.98950479    -0.73500
C1354       C  0.57327958  0.05156926  0.04685135     0.78200
C1355       C  0.95173040  0.03678756  0.03756222     0.78700
C1356       C  0.53684611  0.08148468  0.98128999     0.77700
C1357       C  0.92219192  0.44880632  0.98096068     0.78100
C1358       C  0.96663006  0.42233714  0.04308570     0.79200
C1359       C  0.55629676  0.47275090  0.98446668     0.78300
C1360       C  0.66029510  0.08035623  0.29161622     0.19800
C1361       C  0.66509465  0.08170305  0.27209304    -0.18300
C1362       C  0.63597923  0.06879150  0.25991854    -0.10600
C1363       C  0.60132114  0.05381887  0.26695244     0.22100
C1364       C  0.59652840  0.05218157  0.28638714    -0.19900
C1365       C  0.62561643  0.06501521  0.29856394    -0.10700
C1366       C  0.56968505  0.04116260  0.25458711    -0.14900
C1367       C  0.56828861  0.03062358  0.23676235    -0.28800
C1368       C  0.69049167  0.09409792  0.30516246    -0.03000
C1369       C  0.72426618  0.11718664  0.30045434    -0.39600
H1370       H  0.69113668  0.09236237  0.26602388     0.13200
H1371       H  0.64089706  0.07127464  0.24504225     0.12800
H1372       H  0.57011872  0.04088033  0.29218517     0.12300
H1373       H  0.62101141  0.06333593  0.31348663     0.12500
H1374       H  0.54655559  0.04060274  0.26061121     0.15300
H1375       H  0.59107690  0.03062493  0.23068603     0.14000
H1376       H  0.68455113  0.08548604  0.31963238     0.11700
H1377       H  0.73071667  0.12718246  0.28627175     0.13700
C1378       C  0.92015777  0.32400259  0.28045599     0.19800
C1379       C  0.91496653  0.32477744  0.26113873    -0.18300
C1380       C  0.93220973  0.35679482  0.25121174    -0.10600
C1381       C  0.95508189  0.38881248  0.26047801     0.22100
C1382       C  0.96145601  0.38782631  0.27962713    -0.19900
C1383       C  0.94420302  0.35580762  0.28956012    -0.10700
C1384       C  0.97359401  0.42339393  0.25049419    -0.14900
C1385       C  0.96070207  0.42996016  0.23480365    -0.28800
C1386       C  0.90068757  0.28946756  0.29048415    -0.03000
C1387       C  0.89472368  0.28695813  0.30897822    -0.39600
H1388       H  0.89727874  0.30054548  0.25371427     0.13200
H1389       H  0.92790175  0.35617160  0.23627995     0.12800
H1390       H  0.97963770  0.41198669  0.28696179     0.12300
H1391       H  0.95023283  0.35618107  0.30426360     0.12500
H1392       H  0.99855118  0.44404372  0.25626613     0.15300
H1393       H  0.93549644  0.40986676  0.22907700     0.14000
H1394       H  0.89004148  0.26525822  0.28224946     0.11700
H1395       H  0.90395223  0.31071828  0.31739269     0.13700
C1396       C  0.92898065  0.09235113  0.29127960     0.19800
C1397       C  0.92308724  0.09081665  0.27181239    -0.18300
C1398       C  0.93912544  0.07750256  0.25993282    -0.10600
C1399       C  0.96110834  0.06495024  0.26718465     0.22100
C1400       C  0.96748893  0.06700223  0.28649892    -0.19900
C1401       C  0.95146588  0.08034626  0.29840715    -0.10700
C1402       C  0.97865767  0.05064093  0.25501335    -0.14900
C1403       C  0.96629085  0.03662323  0.23804486    -0.28800
C1404       C  0.91213563  0.10574921  0.30467932    -0.03000
C1405       C  0.89283739  0.12100039  0.29952352    -0.39600
H1406       H  0.90605593  0.09952571  0.26546346     0.13200
H1407       H  0.93454301  0.07761530  0.24506362     0.12800
H1408       H  0.98465678  0.05789729  0.29242426     0.12300
H1409       H  0.95665820  0.08124623  0.31327943     0.12500
H1410       H  0.00257009  0.05161548  0.26032551     0.15300
H1411       H  0.94193978  0.03466780  0.23275089     0.14000
H1412       H  0.91604640  0.10315221  0.31950316     0.11700
H1413       H  0.88889341  0.12480841  0.28493186     0.13700
C1414       C  0.88981347  0.26964275  0.08832623     0.19800
C1415       C  0.88247169  0.26581061  0.06908208    -0.18300
C1416       C  0.90056002  0.29456911  0.05690371    -0.10600
C1417       C  0.92599533  0.32792812  0.06375120     0.22100
C1418       C  0.93430923  0.33157894  0.08293517    -0.19900
C1419       C  0.91622847  0.30285728  0.09512419    -0.10700
C1420       C  0.94242506  0.35854589  0.05064633    -0.14900
C1421       C  0.95348356  0.39208519  0.05616599    -0.28800
C1422       C  0.86824163  0.23881559  0.10075707    -0.03000
C1423       C  0.87698960  0.23621381  0.11851443    -0.39600
H1424       H  0.86231927  0.24054853  0.06346435     0.13200
H1425       H  0.89387867  0.29102327  0.04216720     0.12800
H1426       H  0.95458248  0.35662669  0.08864146     0.12300
H1427       H  0.92253991  0.30735693  0.10983229     0.12500
H1428       H  0.94282953  0.35304400  0.03588206     0.15300
H1429       H  0.95128947  0.39765478  0.07070635     0.14000
H1430       H  0.84375047  0.21742499  0.09499325     0.11700
H1431       H  0.90125141  0.25699685  0.12467115     0.13700
C1432       C  0.66352282  0.10719661  0.07132746     0.19800
C1433       C  0.69722203  0.11183986  0.06768076    -0.18300
C1434       C  0.72370522  0.12561644  0.08135497    -0.10600
C1435       C  0.71697896  0.13513602  0.09900715     0.22100
C1436       C  0.68397495  0.13254542  0.10227544    -0.19900
C1437       C  0.65735658  0.11855261  0.08859825    -0.10700
C1438       C  0.74392915  0.14776603  0.11415739    -0.14900
C1439       C  0.76752434  0.13637668  0.11569250    -0.28800
C1440       C  0.63550534  0.09021657  0.05685205    -0.03000
C1441       C  0.60096587  0.07045873  0.06110772    -0.39600
H1442       H  0.70283079  0.10400083  0.05435097     0.13200
H1443       H  0.74939816  0.12880489  0.07801520     0.12800
H1444       H  0.67850089  0.14052610  0.11559809     0.12300
H1445       H  0.63207944  0.11667309  0.09158815     0.12500
H1446       H  0.74380860  0.16594504  0.12453021     0.15300
H1447       H  0.76795451  0.11821408  0.10545960     0.14000
H1448       H  0.64376955  0.09191930  0.04240571     0.11700
H1449       H  0.59256896  0.06692480  0.07558921     0.13700
C1450       C  0.91358995  0.07016942  0.07633122     0.19800
C1451       C  0.92255635  0.07983662  0.09511370    -0.18300
C1452       C  0.90596453  0.09498626  0.10527920    -0.10600
C1453       C  0.87990143  0.10088712  0.09681085     0.22100
C1454       C  0.87049545  0.09060407  0.07814981    -0.19900
C1455       C  0.88699515  0.07538135  0.06801660    -0.10700
C1456       C  0.86080555  0.11625174  0.10696644    -0.14900
C1457       C  0.87162446  0.13357042  0.12332464    -0.28800
C1458       C  0.93192378  0.05399371  0.06613562    -0.03000
C1459       C  0.93243973  0.05196035  0.04737031    -0.39600
H1460       H  0.94251638  0.07562812  0.10198131     0.13200
H1461       H  0.91331180  0.10128960  0.11978949     0.12800
H1462       H  0.85011615  0.09424735  0.07135911     0.12300
H1463       H  0.87821703  0.06724371  0.05382458     0.12500
H1464       H  0.83648779  0.11293252  0.10067151     0.15300
H1465       H  0.89584077  0.13759217  0.12994516     0.14000
H1466       H  0.94659312  0.04442346  0.07443406     0.11700
H1467       H  0.91942479  0.06273341  0.03868629     0.13700
C1468       C  0.93867935  0.07701069  0.18981948     0.19800
C1469       C  0.94423082  0.11165910  0.19183631    -0.18300
C1470       C  0.92102922  0.12148338  0.18355976    -0.10600
C1471       C  0.89135698  0.09653675  0.17328087     0.22100
C1472       C  0.88572688  0.06185725  0.17136938    -0.19900
C1473       C  0.90889030  0.05205539  0.17962773    -0.10700
C1474       C  0.86753407  0.10622825  0.16295345    -0.14900
C1475       C  0.86640366  0.13640519  0.16566149    -0.28800
C1476       C  0.96296900  0.06716492  0.19956606    -0.03000
C1477       C  0.96553549  0.03833589  0.19514788    -0.39600
H1478       H  0.96679724  0.13130670  0.19972775     0.13200
H1479       H  0.92701447  0.14878277  0.18493746     0.12800
H1480       H  0.86325435  0.04219473  0.16342409     0.12300
H1481       H  0.90285489  0.02473620  0.17824191     0.12500
H1482       H  0.85125507  0.08833117  0.15190738     0.15300
H1483       H  0.87921796  0.15305631  0.17770104     0.14000
H1484       H  0.97888955  0.08398588  0.21101733     0.11700
H1485       H  0.95312318  0.02362001  0.18250008     0.13700
C1486       C  0.63139924  0.07608138  0.18576589     0.19800
C1487       C  0.66027376  0.11028134  0.18892986    -0.18300
C1488       C  0.69195528  0.12264958  0.17899818    -0.10600
C1489       C  0.69573515  0.10077293  0.16577437     0.22100
C1490       C  0.66668815  0.06677675  0.16242769    -0.19900
C1491       C  0.63502652  0.05441596  0.17234942    -0.10700
C1492       C  0.72899632  0.11235260  0.15494034    -0.14900
C1493       C  0.76074609  0.14030362  0.15957169    -0.28800
C1494       C  0.59888847  0.06350222  0.19739434    -0.03000
C1495       C  0.56741612  0.03460907  0.19339178    -0.39600
H1496       H  0.65833133  0.12757491  0.19916470     0.13200
H1497       H  0.71311153  0.14942214  0.18169017     0.12800
H1498       H  0.66867597  0.04938489  0.15227473     0.12300
H1499       H  0.61396393  0.02758227  0.16969825     0.12500
H1500       H  0.72740526  0.09619060  0.14305114     0.15300
H1501       H  0.76367178  0.15438569  0.17250489     0.14000
H1502       H  0.60093868  0.07897864  0.20970145     0.11700
H1503       H  0.56357863  0.02107458  0.18017690     0.13700
C1504       C  0.89600245  0.30436384  0.16639325     0.19800
C1505       C  0.89393359  0.33467993  0.16126494    -0.18300
C1506       C  0.91484148  0.36725210  0.17025502    -0.10600
C1507       C  0.93861819  0.37026030  0.18457207     0.22100
C1508       C  0.94072091  0.33994992  0.18962949    -0.19900
C1509       C  0.91989079  0.30747281  0.18064549    -0.10700
C1510       C  0.96076406  0.40363633  0.19520353    -0.14900
C1511       C  0.96127226  0.43468020  0.19232678    -0.28800
C1512       C  0.87448003  0.27078780  0.15580147    -0.03000
C1513       C  0.87002441  0.23891851  0.16114946    -0.39600
H1514       H  0.87605198  0.33318146  0.15021366     0.13200
H1515       H  0.91194539  0.38962657  0.16589540     0.12800
H1516       H  0.95868892  0.34137182  0.20061626     0.12300
H1517       H  0.92332279  0.28529049  0.18476331     0.12500
H1518       H  0.97699170  0.40227816  0.20646105     0.15300
H1519       H  0.94806451  0.43845853  0.18037301     0.14000
H1520       H  0.86190513  0.27247416  0.14295589     0.11700
H1521       H  0.87881668  0.23556802  0.17482941     0.13700
C1522       C  0.83879316  0.42169025  0.95056788     0.19800
C1523       C  0.82752750  0.44091351  0.93928722    -0.18300
C1524       C  0.79680076  0.42330856  0.92839723    -0.10600
C1525       C  0.77654113  0.38593562  0.92863766     0.22100
C1526       C  0.78728704  0.36671639  0.94025288    -0.19900
C1527       C  0.81813593  0.38431542  0.95107899    -0.10700
C1528       C  0.74360890  0.36618204  0.91741166    -0.14900
C1529       C  0.73763143  0.37871028  0.90136085    -0.28800
C1530       C  0.87126556  0.44178553  0.96214103    -0.03000
C1531       C  0.89042790  0.42770514  0.96926211    -0.39600
H1532       H  0.84258633  0.46973515  0.93889738     0.13200
H1533       H  0.78871363  0.43910667  0.92012025     0.12800
H1534       H  0.77179942  0.33793163  0.94090360     0.12300
H1535       H  0.82515679  0.36853694  0.96005691     0.12500
H1536       H  0.72459950  0.33933526  0.92190079     0.15300
H1537       H  0.75764492  0.40412711  0.89576353     0.14000
H1538       H  0.88021437  0.46978005  0.96453842     0.11700
H1539       H  0.88306213  0.40027828  0.96644374     0.13700
C1540       C  0.59558937  0.16732480  0.95344449     0.19800
C1541       C  0.62620922  0.17976350  0.94251293    -0.18300
C1542       C  0.63753479  0.21003256  0.93123907    -0.10600
C1543       C  0.61861208  0.22867306  0.93094897     0.22100
C1544       C  0.58875792  0.21693887  0.94237065    -0.19900
C1545       C  0.57723999  0.18654423  0.95345498    -0.10700
C1546       C  0.62964493  0.26091515  0.91931712    -0.14900
C1547       C  0.64576333  0.26589471  0.90274573    -0.28800
C1548       C  0.58377915  0.13485636  0.96507645    -0.03000
C1549       C  0.54941540  0.11304682  0.96913732    -0.39600
H1550       H  0.64115361  0.16579888  0.94254676     0.13200
H1551       H  0.66132680  0.21906501  0.92301736     0.12800
H1552       H  0.57409399  0.23118947  0.94259566     0.12300
H1553       H  0.55430327  0.17855250  0.96223608     0.12500
H1554       H  0.62168187  0.27985634  0.92385159     0.15300
H1555       H  0.65096267  0.24564589  0.89717898     0.14000
H1556       H  0.60361899  0.12827781  0.96995027     0.11700
H1557       H  0.52931935  0.11838645  0.96334392     0.13700
C1558       C  0.58368515  0.41634174  0.95424179     0.19800
C1559       C  0.56427390  0.38521926  0.94367742    -0.18300
C1560       C  0.58150648  0.37258349  0.93217341    -0.10600
C1561       C  0.61873162  0.39078741  0.93104288     0.22100
C1562       C  0.63823322  0.42143846  0.94190080    -0.19900
C1563       C  0.62099758  0.43421824  0.95333664    -0.10700
C1564       C  0.63805871  0.37802794  0.91914231    -0.14900
C1565       C  0.62436621  0.35938743  0.90334614    -0.28800
C1566       C  0.56386991  0.42846281  0.96628530    -0.03000
C1567       C  0.57766110  0.46157715  0.97331142    -0.39600
H1568       H  0.53556493  0.37059295  0.94429829     0.13200
H1569       H  0.56560781  0.34823368  0.92447664     0.12800
H1570       H  0.66695944  0.43567008  0.94146375     0.12300
H1571       H  0.63712016  0.45766487  0.96161576     0.12500
H1572       H  0.66539845  0.38630816  0.92283867     0.15300
H1573       H  0.59828743  0.35359326  0.89852990     0.14000
H1574       H  0.53609888  0.40948966  0.96888627     0.11700
H1575       H  0.60480761  0.48163627  0.97031039     0.13700
C1576       C  0.59681257  0.40033797  0.85454932     0.19800
C1577       C  0.59702091  0.43117762  0.86077556    -0.18300
C1578       C  0.57538989  0.44283248  0.85236486    -0.10600
C1579       C  0.55298250  0.42394722  0.83732862     0.22100
C1580       C  0.55243650  0.39288650  0.83119963    -0.19900
C1581       C  0.57404895  0.38115283  0.83965205    -0.10700
C1582       C  0.53013036  0.43574548  0.82752109    -0.14900
C1583       C  0.53571460  0.46925126  0.82805734    -0.28800
C1584       C  0.61977276  0.38891345  0.86459376    -0.03000
C1585       C  0.62253475  0.36002612  0.86042179    -0.39600
H1586       H  0.61384177  0.44627102  0.87237283     0.13200
H1587       H  0.57610257  0.46632131  0.85795342     0.12800
H1588       H  0.53537790  0.37773184  0.81968688     0.12300
H1589       H  0.57246193  0.35703009  0.83444608     0.12500
H1590       H  0.50889840  0.41648283  0.81869100     0.15300
H1591       H  0.55579562  0.48900282  0.83712559     0.14000
H1592       H  0.63520186  0.40526561  0.87629119     0.11700
H1593       H  0.61018289  0.34462975  0.84797878     0.13700
C1594       C  0.59179112  0.19983973  0.85393090     0.19800
C1595       C  0.57585659  0.16670102  0.86310846    -0.18300
C1596       C  0.55894973  0.13491008  0.85295238    -0.10600
C1597       C  0.55703193  0.13568266  0.83335694     0.22100
C1598       C  0.57242764  0.16883607  0.82420393    -0.19900
C1599       C  0.58994546  0.20061691  0.83433783    -0.10700
C1600       C  0.53794366  0.10269464  0.82203496    -0.14900
C1601       C  0.53617611  0.07150314  0.82657280    -0.28800
C1602       C  0.60805556  0.23285820  0.86532254    -0.03000
C1603       C  0.63617496  0.26396941  0.85987361    -0.39600
H1604       H  0.57648665  0.16543584  0.87822212     0.13200
H1605       H  0.54657810  0.10988641  0.86048963     0.12800
H1606       H  0.57091530  0.17012411  0.80912403     0.12300
H1607       H  0.60104867  0.22566944  0.82685897     0.12500
H1608       H  0.52584306  0.10479520  0.80913199     0.15300
H1609       H  0.54716416  0.06892721  0.83977220     0.14000
H1610       H  0.59630294  0.23099936  0.87889243     0.11700
H1611       H  0.64715164  0.26631787  0.84602756     0.13700
C1612       C  0.80030230  0.40169610  0.85156195     0.19500
C1613       C  0.82895382  0.39570935  0.85449740    -0.18300
C1614       C  0.86147067  0.41670972  0.84560325    -0.10600
C1615       C  0.86645895  0.44483312  0.83367130     0.22100
C1616       C  0.83774737  0.45078598  0.83066643    -0.19900
C1617       C  0.80509565  0.42964957  0.83955376    -0.10700
C1618       C  0.90019783  0.46687044  0.82321906    -0.14900
C1619       C  0.93105223  0.46767472  0.82716467    -0.28800
C1620       C  0.76691959  0.37942382  0.86217694    -0.03000
C1621       C  0.73532090  0.37720865  0.85855030    -0.39600
H1622       H  0.82612918  0.37445461  0.86368772     0.13200
H1623       H  0.88222626  0.41019552  0.84793077     0.12800
H1624       H  0.84061971  0.47199496  0.82143002     0.12300
H1625       H  0.78404714  0.43574889  0.83718691     0.12500
H1626       H  0.89934185  0.48262477  0.81156572     0.15300
H1627       H  0.93369723  0.45555240  0.83992085     0.14000
H1628       H  0.76850060  0.36376676  0.87369503     0.11700
H1629       H  0.73162184  0.38932295  0.84605747     0.13700
C1630       C  0.87348931  0.42792423  0.77128112     0.19800
C1631       C  0.85329731  0.39199224  0.76629374    -0.18300
C1632       C  0.82484888  0.38077740  0.75376186    -0.10600
C1633       C  0.81590448  0.40545441  0.74609009     0.22100
C1634       C  0.83543852  0.44115659  0.75168809    -0.19900
C1635       C  0.86380541  0.45229594  0.76414959    -0.10700
C1636       C  0.78653826  0.39564842  0.73238924    -0.14900
C1637       C  0.76830102  0.36373835  0.72401098    -0.28800
C1638       C  0.90418477  0.43943040  0.78412320    -0.03000
C1639       C  0.93246316  0.47228726  0.78321397    -0.39600
H1640       H  0.85991052  0.37265005  0.77188077     0.13200
H1641       H  0.81016147  0.35284702  0.75030167     0.12800
H1642       H  0.82885572  0.46066189  0.74631306     0.12300
H1643       H  0.87789874  0.47997854  0.76828851     0.12500
H1644       H  0.78004104  0.41620175  0.72873891     0.15300
H1645       H  0.77404284  0.34254404  0.72704463     0.14000
H1646       H  0.90406791  0.42038556  0.79415014     0.11700
H1647       H  0.93462513  0.49006240  0.77188810     0.13700
C1648       C  0.54454621  0.10745228  0.75540241     0.19800
C1649       C  0.52532863  0.11807803  0.74374645    -0.18300
C1650       C  0.54298836  0.14816596  0.73233820    -0.10600
C1651       C  0.58028730  0.16792722  0.73234023     0.22100
C1652       C  0.59941506  0.15667286  0.74362497    -0.19900
C1653       C  0.58180841  0.12680825  0.75507492    -0.10700
C1654       C  0.60044794  0.19978632  0.72046683    -0.14900
C1655       C  0.58755559  0.22059280  0.71431710    -0.28800
C1656       C  0.52516132  0.07549114  0.76730249    -0.03000
C1657       C  0.53844537  0.07130150  0.78350136    -0.39600
H1658       H  0.49659640  0.10316803  0.74355122     0.13200
H1659       H  0.52739266  0.15539862  0.72335850     0.12800
H1660       H  0.62816015  0.17115062  0.74363668     0.12300
H1661       H  0.59750120  0.11863062  0.76335932     0.12500
H1662       H  0.62787805  0.20749129  0.71752576     0.15300
H1663       H  0.56085708  0.21454704  0.71783048     0.14000
H1664       H  0.00142337  0.05481634  0.76330842     0.11700
H1665       H  0.56368613  0.09225960  0.78875170     0.13700
C1666       C  0.58330260  0.41891652  0.73462559     0.19800
C1667       C  0.55210572  0.40070284  0.74512662    -0.18300
C1668       C  0.54046853  0.41928180  0.75626023    -0.10600
C1669       C  0.55963432  0.45667609  0.75700550     0.22100
C1670       C  0.59019825  0.47507340  0.74605038    -0.19900
C1671       C  0.60213582  0.45643393  0.73505545    -0.10700
C1672       C  0.54737310  0.47676927  0.76866243    -0.14900
C1673       C  0.53204279  0.46448530  0.78537833    -0.28800
C1674       C  0.59442913  0.39775243  0.72299535    -0.03000
C1675       C  0.62801676  0.40959970  0.71740878    -0.39600
H1676       H  0.53673717  0.37189835  0.74480252     0.13200
H1677       H  0.51611555  0.40433773  0.76404570     0.12800
H1678       H  0.60503892  0.50390418  0.74614744     0.12300
H1679       H  0.62565190  0.47152908  0.72669420     0.12500
H1680       H  0.55224522  0.50259949  0.76371054     0.15300
H1681       H  0.53053867  0.44033499  0.79070824     0.14000
H1682       H  0.57426720  0.37073169  0.71948656     0.11700
H1683       H  0.64891788  0.43585157  0.72149244     0.13700
C1684       C  0.72583581  0.22412960  0.40291876     0.19800
C1685       C  0.70538867  0.21019404  0.41907365    -0.18300
C1686       C  0.69614951  0.23130115  0.42983237    -0.10600
C1687       C  0.70713110  0.26672215  0.42447628     0.22100
C1688       C  0.72562649  0.27968016  0.40768092    -0.19900
C1689       C  0.73489731  0.25869708  0.39701746    -0.10700
C1690       C  0.69977372  0.29103753  0.43577644    -0.14900
C1691       C  0.69306394  0.28677610  0.45418808    -0.28800
C1692       C  0.73884998  0.20315534  0.39267296    -0.03000
C1693       C  0.77172725  0.21945717  0.38556740    -0.39600
H1694       H  0.69753371  0.18338890  0.42367721     0.13200
H1695       H  0.68050182  0.21972280  0.44225768     0.12800
H1696       H  0.73366997  0.30648550  0.40298585     0.12300
H1697       H  0.74954171  0.26972740  0.38422189     0.12500
H1698       H  0.70222361  0.31452188  0.42882359     0.15300
H1699       H  0.69291253  0.26461637  0.46139024     0.14000
H1700       H  0.72231547  0.17441523  0.39178545     0.11700
H1701       H  0.78873800  0.24785771  0.38782475     0.13700
C1702       C  0.55982054  0.27386754  0.42592816     0.19800
C1703       C  0.55149719  0.29053228  0.41148187    -0.18300
C1704       C  0.52158173  0.27106540  0.40033307    -0.10600
C1705       C  0.99732976  0.23481131  0.40424298     0.22100
C1706       C  0.50830737  0.21735536  0.41738712    -0.19900
C1707       C  0.53826413  0.23688715  0.42860609    -0.10700
C1708       C  0.96471011  0.21351091  0.39297570    -0.14900
C1709       C  0.94206429  0.22545763  0.38920141    -0.28800
C1710       C  0.59173394  0.29586335  0.43745407    -0.03000
C1711       C  0.59629342  0.28670581  0.45476067    -0.39600
H1712       H  0.56806504  0.31881031  0.40889760     0.13200
H1713       H  0.00619263  0.28663894  0.39506178     0.12800
H1714       H  0.99834571  0.18869284  0.41533977     0.12300
H1715       H  0.54457421  0.22281468  0.43913382     0.12500
H1716       H  0.95904204  0.18755263  0.38794529     0.15300
H1717       H  0.94682421  0.25054276  0.39507877     0.14000
H1718       H  0.61131696  0.32153257  0.43183511     0.11700
H1719       H  0.57571264  0.26257674  0.46119531     0.13700
C1720       C  0.73908251  0.99808818  0.40146020     0.19800
C1721       C  0.71405744  0.48856861  0.41547268    -0.18300
C1722       C  0.70218825  0.45755898  0.42621496    -0.10600
C1723       C  0.71843407  0.43645030  0.42468049     0.22100
C1724       C  0.74607546  0.44659342  0.41180985    -0.19900
C1725       C  0.75812093  0.47773803  0.40116786    -0.10700
C1726       C  0.70694058  0.40355509  0.43604464    -0.14900
C1727       C  0.69259408  0.39910837  0.45313356    -0.28800
C1728       C  0.75107952  0.03132194  0.39031126    -0.03000
C1729       C  0.78405856  0.05010578  0.38330184    -0.39600
H1730       H  0.69897857  0.00412473  0.41610312     0.13200
H1731       H  0.67998663  0.44999449  0.43549004     0.12800
H1732       H  0.75865530  0.43052557  0.41011083     0.12300
H1733       H  0.77444196  0.98197683  0.38895566     0.12500
H1734       H  0.71285436  0.38356755  0.43077902     0.15300
H1735       H  0.68915752  0.42015641  0.45912997     0.14000
H1736       H  0.73275032  0.04140832  0.38852004     0.11700
H1737       H  0.80324356  0.04140909  0.38593833     0.13700
C1738       C  0.76870071  0.20291630  0.60178313     0.19800
C1739       C  0.76210151  0.19241769  0.62062054    -0.18300
C1740       C  0.74800276  0.20754785  0.63267121    -0.10600
C1741       C  0.73968240  0.23319940  0.62612486     0.22100
C1742       C  0.74647083  0.24388623  0.60725352    -0.19900
C1743       C  0.76050755  0.22873816  0.59520750    -0.10700
C1744       C  0.72514970  0.24905436  0.63944500    -0.14900
C1745       C  0.70713886  0.26541355  0.63387113    -0.28800
C1746       C  0.78329998  0.18564320  0.58951035    -0.03000
C1747       C  0.79842242  0.19841661  0.57276365    -0.39600
H1748       H  0.76804989  0.17251773  0.62607661     0.13200
H1749       H  0.74337507  0.19901042  0.64714056     0.12800
H1750       H  0.74157674  0.26434390  0.60167233     0.12300
H1751       H  0.76442812  0.23720212  0.58076373     0.12500
H1752       H  0.72936903  0.24712639  0.65429550     0.15300
H1753       H  0.70153529  0.26647234  0.61917006     0.14000
H1754       H  0.78153152  0.16119058  0.59465212     0.11700
H1755       H  0.80077274  0.22290250  0.56732330     0.13700
C1756       C  0.49999497  0.27476863  0.62100244     0.19800
C1757       C  0.96755907  0.25026277  0.62379429    -0.18300
C1758       C  0.94145506  0.23615545  0.60993841    -0.10600
C1759       C  0.94894100  0.24985830  0.59160791     0.22100
C1760       C  0.98211491  0.27936945  0.58773505    -0.19900
C1761       C  0.50336711  0.29505198  0.60489196    -0.10700
C1762       C  0.92253639  0.23372290  0.57638395    -0.14900
C1763       C  0.89969258  0.19865167  0.57595540    -0.28800
C1764       C  0.52819740  0.28708191  0.63546818    -0.03000
C1765       C  0.56270153  0.30600550  0.63103520    -0.39600
H1766       H  0.96153177  0.23859664  0.63765805     0.13200
H1767       H  0.91552001  0.21442678  0.61360126     0.12800
H1768       H  0.98810452  0.29087158  0.57383394     0.12300
H1769       H  0.52606048  0.32137454  0.60307417     0.12500
H1770       H  0.92219159  0.25070715  0.56521684     0.15300
H1771       H  0.89986756  0.18146421  0.58702138     0.14000
H1772       H  0.52066050  0.27727006  0.64966858     0.11700
H1773       H  0.57042093  0.31338728  0.61657714     0.13700
C1774       C  0.77430842  0.50904973  0.63008704     0.19800
C1775       C  0.79125987  0.01002298  0.61420284    -0.18300
C1776       C  0.79845453  0.03649152  0.60090274    -0.10600
C1777       C  0.78881858  0.06260655  0.60424970     0.22100
C1778       C  0.77375434  0.06275103  0.62152383    -0.19900
C1779       C  0.76969642  0.53796781  0.63446976    -0.10700
C1780       C  0.79493595  0.09101348  0.59064165    -0.14900
C1781       C  0.80590949  0.09282492  0.57293839    -0.28800
C1782       C  0.76049358  0.47853128  0.64316362    -0.03000
C1783       C  0.74513950  0.44496740  0.63689581    -0.39600
H1784       H  0.79849257  0.98994618  0.61119975     0.13200
H1785       H  0.81139839  0.03611688  0.58814524     0.12800
H1786       H  0.76672578  0.08296191  0.62463059     0.12300
H1787       H  0.75826666  0.53889869  0.64771707     0.12500
H1788       H  0.78978022  0.11159673  0.59562499     0.15300
H1789       H  0.80881703  0.07145040  0.56701754     0.14000
H1790       H  0.75834810  0.48339930  0.65784928     0.11700
H1791       H  0.74473434  0.43989089  0.62203029     0.13700
C1792       C  0.76166639  0.22443789  0.52190756     0.19800
C1793       C  0.72708260  0.21856980  0.52412178    -0.18300
C1794       C  0.71604894  0.23998916  0.51487550    -0.10600
C1795       C  0.73964066  0.26821561  0.50332344     0.22100
C1796       C  0.77417094  0.27399303  0.50101611    -0.19900
C1797       C  0.78523869  0.25259934  0.51029058    -0.10700
C1798       C  0.72863573  0.29072934  0.49261185    -0.14900
C1799       C  0.69978579  0.29331657  0.49669915    -0.28800
C1800       C  0.77247539  0.20192671  0.53278924    -0.03000
C1801       C  0.80234993  0.20066455  0.52966244    -0.39600
H1802       H  0.70840976  0.19718343  0.53301408     0.13200
H1803       H  0.68884845  0.23378025  0.51659064     0.12800
H1804       H  0.79279042  0.29536402  0.49209862     0.12300
H1805       H  0.81241874  0.25882034  0.50852054     0.12500
H1806       H  0.74473178  0.30548254  0.48070221     0.15300
H1807       H  0.68548405  0.28208266  0.50958269     0.14000
H1808       H  0.75503610  0.18574881  0.54397562     0.11700
H1809       H  0.81825115  0.21330410  0.51740340     0.13700
C1810       C  0.73887260  0.46480164  0.50260006     0.19800
C1811       C  0.77335894  0.99297793  0.50023020    -0.18300
C1812       C  0.78584369  0.02495764  0.51001790    -0.10600
C1813       C  0.76305104  0.03036260  0.52175165     0.22100
C1814       C  0.72769101  0.00297077  0.52348094    -0.19900
C1815       C  0.71824479  0.46875809  0.51646289    -0.10700
C1816       C  0.77538396  0.06317288  0.53315213    -0.14900
C1817       C  0.80520474  0.09427997  0.52977305    -0.28800
C1818       C  0.72611360  0.43147651  0.49157893    -0.03000
C1819       C  0.69747539  0.40004060  0.49598881    -0.39600
H1820       H  0.79149333  0.98954110  0.49131050     0.13200
H1821       H  0.81348371  0.04492212  0.50860981     0.12800
H1822       H  0.70953168  0.00636563  0.53240254     0.12300
H1823       H  0.69194247  0.44750751  0.51982079     0.12500
H1824       H  0.75873186  0.06177045  0.54475696     0.15300
H1825       H  0.82033246  0.09771688  0.51718691     0.14000
H1826       H  0.74137081  0.43285580  0.47932673     0.11700
H1827       H  0.68392944  0.39675553  0.50911976     0.13700
C1828       C  0.53413686  0.26808712  0.50481956     0.19800
C1829       C  0.50561591  0.27428517  0.50197925    -0.18300
C1830       C  0.97378702  0.25582738  0.51369956    -0.10600
C1831       C  0.96932026  0.22806852  0.52576303     0.22100
C1832       C  0.99737208  0.22089509  0.52782296    -0.19900
C1833       C  0.52992099  0.24113196  0.51742068    -0.10700
C1834       C  0.93639294  0.20695235  0.53684487    -0.14900
C1835       C  0.90479949  0.20358411  0.53205809    -0.28800
C1836       C  0.56691107  0.28908688  0.49365303    -0.03000
C1837       C  0.59831120  0.29114931  0.49744849    -0.39600
H1838       H  0.50805660  0.29476815  0.49231810     0.13200
H1839       H  0.95336895  0.26307863  0.51215752     0.12800
H1840       H  0.99473107  0.19979930  0.53707918     0.12300
H1841       H  0.55078174  0.23473210  0.51968605     0.12500
H1842       H  0.93807272  0.19278244  0.54903390     0.15300
H1843       H  0.90186887  0.21415860  0.51880231     0.14000
H1844       H  0.56511342  0.30379130  0.48172214     0.11700
H1845       H  0.60212931  0.28005542  0.51029978     0.13700
C1846       C  0.83282755  0.66337345  0.56910311     0.46600
H1847       H  0.83331854  0.66428869  0.58457145    -0.02500
C1848       C  0.83511517  0.66446227  0.53288408     0.46600
H1849       H  0.83611949  0.66493474  0.51736442    -0.02500
C1850       C  0.87036542  0.68441334  0.56132237    -0.16100
C1851       C  0.81744558  0.62617789  0.56058661    -0.15900
C1852       C  0.81241309  0.68018144  0.56008710    -0.16300
C1853       C  0.87192625  0.68514905  0.54214527    -0.16300
C1854       C  0.81821877  0.62659242  0.54133908    -0.15800
C1855       C  0.81377519  0.68101419  0.54088395    -0.16100
C1856       C  0.66651595  0.83124019  0.49254165     0.46600
H1857       H  0.66708392  0.83166172  0.50807339    -0.02500
C1858       C  0.66505141  0.83007630  0.45623675     0.46600
H1859       H  0.66400404  0.82922703  0.44079534    -0.02500
C1860       C  0.68540316  0.81256610  0.48408302    -0.16100
C1861       C  0.62883419  0.81135484  0.48439050    -0.15900
C1862       C  0.68379101  0.86850153  0.48358671    -0.16300
C1863       C  0.68442920  0.81163510  0.46484955    -0.16300
C1864       C  0.62798451  0.81052137  0.46517371    -0.15800
C1865       C  0.68282001  0.86793092  0.46436540    -0.16100
Zn1866     Zn  0.68382358  0.80155706  0.68523477     1.49700
Zn1867     Zn  0.67118194  0.83679752  0.64963515     1.49400
Zn1868     Zn  0.61784297  0.81703052  0.68362637     1.49100
Zn1869     Zn  0.69764985  0.88138143  0.68739445     1.49500
O1870       O  0.66748447  0.83415237  0.67666501    -1.83000
O1871       O  0.69897894  0.78115400  0.66397519    -0.73600
O1872       O  0.62528942  0.82447117  0.63740009    -0.73500
O1873       O  0.59914620  0.77152373  0.69853701    -0.73000
O1874       O  0.68644806  0.80408853  0.63920947    -0.73700
O1875       O  0.64448638  0.76102659  0.69905104    -0.73300
O1876       O  0.58661842  0.80712803  0.66068966    -0.73800
O1877       O  0.66840019  0.89890008  0.70075307    -0.73200
O1878       O  0.70672834  0.88517408  0.64124368    -0.74000
O1879       O  0.61311979  0.85368599  0.69910726    -0.73400
O1880       O  0.72554201  0.91722387  0.66724643    -0.73800
O1881       O  0.73229503  0.88028546  0.70598242    -0.73800
O1882       O  0.72469966  0.82574081  0.70328490    -0.73500
C1883       C  0.69755868  0.78448804  0.64634003     0.78200
C1884       C  0.59388571  0.81227103  0.64333142     0.78700
C1885       C  0.61287777  0.75261915  0.70343461     0.77700
C1886       C  0.63552601  0.88507416  0.70444132     0.78100
C1887       C  0.72598993  0.91442793  0.64955061     0.79200
C1888       C  0.74037573  0.85662537  0.71051989     0.78300
C1889       C  0.50065879  0.50362418  0.78808103     0.46600
H1890       H  0.50119530  0.50387296  0.77257825    -0.02500
C1891       C  0.49878879  0.50221227  0.82435263     0.46600
H1892       H  0.49811600  0.50159573  0.83987812    -0.02500
C1893       C  0.96231903  0.98487257  0.79601626    -0.16100
C1894       C  0.51667034  0.98185210  0.79486842    -0.15900
C1895       C  0.52088522  0.54063424  0.79697377    -0.16300
C1896       C  0.96296234  0.98467854  0.81524941    -0.16300
C1897       C  0.51727630  0.98194520  0.81408487    -0.15800
C1898       C  0.51969516  0.54019704  0.81619004    -0.16100
C1899       C  0.66744361  0.83633915  0.86370934     0.46600
H1900       H  0.66627315  0.83580914  0.84818905    -0.02500
C1901       C  0.67014513  0.83774516  0.90004562     0.46600
H1902       H  0.67133183  0.83834472  0.91553296    -0.02500
C1903       C  0.64517322  0.85105092  0.87259212    -0.16100
C1904       C  0.65362036  0.79927488  0.87265383    -0.15900
C1905       C  0.70521769  0.85964719  0.87161083    -0.16300
C1906       C  0.64651149  0.85170011  0.89182164    -0.16300
C1907       C  0.65572410  0.80029201  0.89185723    -0.15800
C1908       C  0.70641763  0.86032690  0.89083219    -0.16100
C1909       C  0.83580238  0.66822282  0.12230191     0.46600
H1910       H  0.83786651  0.66698035  0.10690923    -0.02500
C1911       C  0.83161005  0.67169138  0.15833352     0.46600
H1912       H  0.82992588  0.67310968  0.17376721    -0.02500
C1913       C  0.79774165  0.65191409  0.12928684    -0.16100
C1914       C  0.85209984  0.64902440  0.13302874    -0.15900
C1915       C  0.85505927  0.70643547  0.12989857    -0.16300
C1916       C  0.79515384  0.65368857  0.14838651    -0.16300
C1917       C  0.84989751  0.65077720  0.15211580    -0.15800
C1918       C  0.85304191  0.70833043  0.14899072    -0.16100
C1919       C  0.00249594  0.00546614  0.19755951     0.46600
H1920       H  0.00261416  0.00673307  0.18203664    -0.02500
C1921       C  0.00205144  0.00234795  0.23383831     0.46600
H1922       H  0.00066834  0.99992447  0.24925502    -0.02500
C1923       C  0.98180501  0.52226076  0.20716251    -0.16100
C1924       C  0.98213496  0.96743356  0.20516867    -0.15900
C1925       C  0.53870565  0.52030057  0.20645301    -0.16300
C1926       C  0.98224929  0.52037652  0.22634241    -0.16300
C1927       C  0.98164847  0.96574189  0.22432684    -0.15800
C1928       C  0.53875010  0.51870809  0.22568667    -0.16100
Zn1929     Zn  0.86206130  0.64448923  0.35298344     1.49700
Zn1930     Zn  0.78488070  0.63930900  0.35416478     1.49400
Zn1931     Zn  0.85589731  0.71473701  0.35505624     1.49100
Zn1932     Zn  0.83625882  0.67144413  0.31768521     1.49500
O1933       O  0.83433479  0.66692992  0.34497926    -1.83000
O1934       O  0.83184164  0.60093839  0.36855045    -0.73600
O1935       O  0.77143708  0.67023270  0.37026902    -0.73500
O1936       O  0.89795636  0.72595406  0.37068068    -0.73000
O1937       O  0.77839728  0.59626959  0.36954933    -0.73700
O1938       O  0.90496689  0.67857784  0.36846712    -0.73300
O1939       O  0.82212235  0.72166366  0.37034589    -0.73800
O1940       O  0.86012791  0.72267195  0.30870548    -0.73200
O1941       O  0.75111180  0.62166772  0.33183186    -0.74000
O1942       O  0.87316686  0.75230935  0.33538519    -0.73400
O1943       O  0.78685377  0.64575899  0.30735016    -0.73800
O1944       O  0.86368916  0.64991791  0.30644453    -0.73800
O1945       O  0.87973680  0.62884413  0.33078816    -0.73500
C1946       C  0.79965713  0.58486693  0.37388051     0.78200
C1947       C  0.78995739  0.70280393  0.37515079     0.78700
C1948       C  0.91505854  0.70992149  0.37440901     0.77700
C1949       C  0.87355859  0.75183430  0.31768850     0.78100
C1950       C  0.75603285  0.62707743  0.31425877     0.79200
C1951       C  0.87896066  0.63373142  0.31325018     0.78300
Zn1952     Zn  0.55258637  0.53324094  0.00402989     1.49700
Zn1953     Zn  0.99515198  0.50137711  0.03874041     1.49400
Zn1954     Zn  0.97095986  0.51874825  0.00020772     1.49100
Zn1955     Zn  0.98495317  0.95298423  0.00324984     1.49500
O1956       O  0.99990627  0.50060731  0.01168386    -1.83000
O1957       O  0.58345850  0.55382651  0.02726261    -0.73600
O1958       O  0.96514782  0.52255624  0.04648936    -0.73500
O1959       O  0.50339137  0.56353602  0.98321232    -0.73000
O1960       O  0.54387657  0.53234822  0.05016022    -0.73700
O1961       O  0.55863596  0.57428187  0.98767052    -0.73300
O1962       O  0.94843137  0.53505151  0.01944034    -0.73800
O1963       O  0.94225009  0.93673631  0.98632665    -0.73200
O1964       O  0.97832330  0.95426588  0.04967765    -0.74000
O1965       O  0.93441460  0.98374112  0.98475664    -0.73400
O1966       O  0.96935679  0.91921212  0.02523646    -0.73800
O1967       O  0.52366395  0.95050607  0.99022119    -0.73800
O1968       O  0.57044355  0.00498711  0.99243843    -0.73500
C1969       C  0.57565588  0.55080825  0.04457901     0.78200
C1970       C  0.94864588  0.53505010  0.03720243     0.78700
C1971       C  0.53657649  0.58234334  0.98044352     0.77700
C1972       C  0.92512576  0.95175166  0.98045866     0.78100
C1973       C  0.96803005  0.92367956  0.04273000     0.79200
C1974       C  0.55609605  0.97288347  0.98681268     0.78300
C1975       C  0.66185971  0.57749640  0.29288118     0.19800
C1976       C  0.66611971  0.57243633  0.27385287    -0.18300
C1977       C  0.63762106  0.56075092  0.26137995    -0.10600
C1978       C  0.60398422  0.55325017  0.26770086     0.22100
C1979       C  0.59962432  0.55754268  0.28676558    -0.19900
C1980       C  0.62816024  0.56929260  0.29923011    -0.10700
C1981       C  0.57296988  0.54187292  0.25500964    -0.14900
C1982       C  0.57099501  0.53012640  0.23741488    -0.28800
C1983       C  0.69192835  0.59143235  0.30640193    -0.03000
C1984       C  0.72585246  0.61188297  0.30109720    -0.39600
H1985       H  0.69134502  0.57727741  0.26846717     0.13200
H1986       H  0.64248635  0.55830675  0.24683303     0.12800
H1987       H  0.57401982  0.55192470  0.29204548     0.12300
H1988       H  0.62404377  0.57264397  0.31381916     0.12500
H1989       H  0.55060318  0.54340440  0.26058817     0.15300
H1990       H  0.59292808  0.52846973  0.23139545     0.14000
H1991       H  0.68585640  0.58619696  0.32118113     0.11700
H1992       H  0.73215274  0.61888077  0.28649677     0.13700
C1993       C  0.91612774  0.82451045  0.27979273     0.19800
C1994       C  0.91067330  0.82627747  0.26058597    -0.18300
C1995       C  0.92833329  0.85868302  0.25102053    -0.10600
C1996       C  0.95191253  0.89015188  0.26054222     0.22100
C1997       C  0.95823579  0.88819569  0.27962099    -0.19900
C1998       C  0.94058780  0.85577455  0.28918385    -0.10700
C1999       C  0.97160202  0.92500307  0.25084780    -0.14900
C2000       C  0.96014613  0.93232221  0.23486299    -0.28800
C2001       C  0.89692008  0.78948347  0.28940304    -0.03000
C2002       C  0.89074417  0.78633508  0.30786608    -0.39600
H2003       H  0.89262818  0.80247885  0.25294742     0.13200
H2004       H  0.92393044  0.85865500  0.23612909     0.12800
H2005       H  0.97690730  0.91185780  0.28715994     0.12300
H2006       H  0.94678984  0.85533397  0.30380693     0.12500
H2007       H  0.99652249  0.94504565  0.25695370     0.15300
H2008       H  0.93503206  0.91289649  0.22876049     0.14000
H2009       H  0.88709258  0.76559072  0.28097127     0.11700
H2010       H  0.89913114  0.80987401  0.31636682     0.13700
C2011       C  0.92187000  0.58371135  0.29127512     0.19800
C2012       C  0.90670260  0.54799465  0.28587518    -0.18300
C2013       C  0.92432953  0.53753920  0.27329400    -0.10600
C2014       C  0.95792831  0.56251972  0.26644666     0.22100
C2015       C  0.97352528  0.59802772  0.27229580    -0.19900
C2016       C  0.95537946  0.60870274  0.28437303    -0.10700
C2017       C  0.97759873  0.55174420  0.25372913    -0.14900
C2018       C  0.96199515  0.53063058  0.23896946    -0.28800
C2019       C  0.90293457  0.59460735  0.30442659    -0.03000
C2020       C  0.89700913  0.62154962  0.30031830    -0.39600
H2021       H  0.88100183  0.52833961  0.29118664     0.13200
H2022       H  0.91209643  0.50985566  0.26921294     0.12800
H2023       H  0.99955143  0.61757369  0.26730282     0.12300
H2024       H  0.96772476  0.63631824  0.28860314     0.12500
H2025       H  0.00599013  0.56314891  0.25585169     0.15300
H2026       H  0.93440816  0.52187116  0.23566107     0.14000
H2027       H  0.89231650  0.57926747  0.31717980     0.11700
H2028       H  0.90498248  0.63460796  0.28677626     0.13700
C2029       C  0.88682267  0.77065213  0.08763239     0.19800
C2030       C  0.87447074  0.76833328  0.06921391    -0.18300
C2031       C  0.89173299  0.79691189  0.05682535    -0.10600
C2032       C  0.92143472  0.82858959  0.06267534     0.22100
C2033       C  0.93447599  0.83068624  0.08092794    -0.19900
C2034       C  0.91727388  0.80218851  0.09331394    -0.10700
C2035       C  0.93790097  0.85917862  0.04958648    -0.14900
C2036       C  0.95399246  0.89304609  0.05556594    -0.28800
C2037       C  0.86655360  0.73996838  0.10040901    -0.03000
C2038       C  0.87721327  0.73726308  0.11772500    -0.39600
H2039       H  0.85115473  0.74441152  0.06442353     0.13200
H2040       H  0.88134470  0.79458801  0.04277982     0.12800
H2041       H  0.95801810  0.85431588  0.08572466     0.12300
H2042       H  0.92791128  0.80562224  0.10729732     0.12500
H2043       H  0.93448370  0.85373575  0.03468432     0.15300
H2044       H  0.95532351  0.89874267  0.07039025     0.14000
H2045       H  0.84111591  0.71880832  0.09540991     0.11700
H2046       H  0.90210106  0.75776233  0.12342568     0.13700
C2047       C  0.66521610  0.60570407  0.07002505     0.19800
C2048       C  0.69965533  0.61213595  0.06662551    -0.18300
C2049       C  0.72539685  0.62559128  0.08072436    -0.10600
C2050       C  0.71717158  0.63299647  0.09856064     0.22100
C2051       C  0.68335613  0.62851305  0.10163802    -0.19900
C2052       C  0.65755145  0.61493322  0.08754615    -0.10700
C2053       C  0.74351163  0.64586612  0.11404021    -0.14900
C2054       C  0.76857787  0.63640713  0.11546105    -0.28800
C2055       C  0.63793251  0.58917946  0.05509328    -0.03000
C2056       C  0.60329793  0.56873298  0.05896944    -0.39600
H2057       H  0.70646426  0.60603435  0.05313719     0.13200
H2058       H  0.75172270  0.63031325  0.07755193     0.12800
H2059       H  0.67668150  0.63486185  0.11509869     0.12300
H2060       H  0.63173161  0.61182131  0.09043192     0.12500
H2061       H  0.74197960  0.66298908  0.12459891     0.15300
H2062       H  0.77036040  0.61937747  0.10497328     0.14000
H2063       H  0.64673368  0.59215746  0.04068418     0.11700
H2064       H  0.59452246  0.56401482  0.07339145     0.13700
C2065       C  0.91309661  0.57064007  0.07598009     0.19800
C2066       C  0.92480776  0.58340011  0.09410989    -0.18300
C2067       C  0.90871462  0.59886974  0.10439467    -0.10600
C2068       C  0.88032038  0.60188858  0.09671168     0.22100
C2069       C  0.86833673  0.58865230  0.07866972    -0.19900
C2070       C  0.88438204  0.57312576  0.06841826    -0.10700
C2071       C  0.86163134  0.61752984  0.10699755    -0.14900
C2072       C  0.87251649  0.63469022  0.12339856    -0.28800
C2073       C  0.93090044  0.55412790  0.06570213    -0.03000
C2074       C  0.92952547  0.55034549  0.04700632    -0.39600
H2075       H  0.94658445  0.58142381  0.10036182     0.13200
H2076       H  0.91850196  0.60780821  0.11836114     0.12800
H2077       H  0.84624372  0.59013421  0.07247828     0.12300
H2078       H  0.87365692  0.56257570  0.05476890     0.12500
H2079       H  0.83728337  0.61431535  0.10079833     0.15300
H2080       H  0.89639602  0.63822406  0.13018460     0.14000
H2081       H  0.94695304  0.54600325  0.07383808     0.11700
H2082       H  0.91525415  0.55989366  0.03843087     0.13700
C2083       C  0.93386943  0.57374411  0.19158410     0.19800
C2084       C  0.93757367  0.60717225  0.19551509    -0.18300
C2085       C  0.91569105  0.61824648  0.18682314    -0.10600
C2086       C  0.88917805  0.59576744  0.17411556     0.22100
C2087       C  0.88515282  0.56211933  0.17043226    -0.19900
C2088       C  0.90702774  0.55108704  0.17910118    -0.10700
C2089       C  0.86699296  0.60699268  0.16327723    -0.14900
C2090       C  0.86674504  0.63768532  0.16581036    -0.28800
C2091       C  0.95717514  0.56281144  0.20150745    -0.03000
C2092       C  0.96178051  0.53566152  0.19602564    -0.39600
H2093       H  0.95777036  0.62499311  0.20522553     0.13200
H2094       H  0.92030564  0.64462160  0.18990750     0.12800
H2095       H  0.86506251  0.54427218  0.16068219     0.12300
H2096       H  0.90233809  0.52462633  0.17612371     0.12500
H2097       H  0.85115921  0.58970469  0.15193289     0.15300
H2098       H  0.87920889  0.65414252  0.17793884     0.14000
H2099       H  0.97133790  0.57803235  0.21375385     0.11700
H2100       H  0.95123752  0.52280246  0.18271592     0.13700
C2101       C  0.63396561  0.57493185  0.18635856     0.19800
C2102       C  0.66015443  0.61101080  0.18671585    -0.18300
C2103       C  0.69163608  0.62329846  0.17663130    -0.10600
C2104       C  0.69796750  0.59954404  0.16618058     0.22100
C2105       C  0.67163157  0.56349086  0.16569200    -0.19900
C2106       C  0.64007605  0.55121595  0.17573875    -0.10700
C2107       C  0.73116177  0.61154058  0.15527435    -0.14900
C2108       C  0.76190851  0.64132546  0.15924381    -0.28800
C2109       C  0.60157239  0.56275876  0.19795344    -0.03000
C2110       C  0.57049773  0.53316137  0.19431028    -0.39600
H2111       H  0.65613765  0.62984883  0.19475599     0.13200
H2112       H  0.71065990  0.65146841  0.17690989     0.12800
H2113       H  0.67572408  0.54462072  0.15772907     0.12300
H2114       H  0.62098059  0.52305340  0.17548693     0.12500
H2115       H  0.73057665  0.59446458  0.14406432     0.15300
H2116       H  0.76393975  0.65639562  0.17168875     0.14000
H2117       H  0.60315350  0.57929177  0.20969437     0.11700
H2118       H  0.56725453  0.51855947  0.18150160     0.13700
C2119       C  0.89962010  0.80682578  0.16553980     0.19800
C2120       C  0.89647801  0.83681384  0.16110515    -0.18300
C2121       C  0.91683553  0.86907049  0.17046966    -0.10600
C2122       C  0.94129567  0.87220672  0.18441102     0.22100
C2123       C  0.94483667  0.84234475  0.18861160    -0.19900
C2124       C  0.92445683  0.81010688  0.17926537    -0.10700
C2125       C  0.96231845  0.90515183  0.19560661    -0.14900
C2126       C  0.96348427  0.93646007  0.19240100    -0.28800
C2127       C  0.87774316  0.77328765  0.15495486    -0.03000
C2128       C  0.87237373  0.74114564  0.16047128    -0.39600
H2129       H  0.87786815  0.83518752  0.15045290     0.13200
H2130       H  0.91268802  0.89101755  0.16684954     0.12800
H2131       H  0.96344525  0.84390279  0.19924890     0.12300
H2132       H  0.92872255  0.78814346  0.18272263     0.12500
H2133       H  0.97737403  0.90335131  0.20734532     0.15300
H2134       H  0.95179684  0.94057943  0.17989006     0.14000
H2135       H  0.86512889  0.77515872  0.14217032     0.11700
H2136       H  0.88125142  0.73791871  0.17416501     0.13700
C2137       C  0.84143139  0.92516941  0.95047723     0.19800
C2138       C  0.83005673  0.94439329  0.93928168    -0.18300
C2139       C  0.79916734  0.92677884  0.92851016    -0.10600
C2140       C  0.77884069  0.88939644  0.92880731     0.22100
C2141       C  0.78978765  0.87019315  0.94030483    -0.19900
C2142       C  0.82077882  0.88780217  0.95101239    -0.10700
C2143       C  0.74564168  0.86956505  0.91778285    -0.14900
C2144       C  0.73890387  0.88227105  0.90202442    -0.28800
C2145       C  0.87396214  0.94517626  0.96200452    -0.03000
C2146       C  0.89349832  0.93112490  0.96860797    -0.39600
H2147       H  0.84514136  0.97321273  0.93887860     0.13200
H2148       H  0.79101337  0.94260612  0.92031284     0.12800
H2149       H  0.77430171  0.84141133  0.94098980     0.12300
H2150       H  0.82790968  0.87205266  0.95995055     0.12500
H2151       H  0.72704213  0.84248441  0.92213096     0.15300
H2152       H  0.75839095  0.90797936  0.89648452     0.14000
H2153       H  0.88256387  0.97296216  0.96482851     0.11700
H2154       H  0.88641528  0.90394720  0.96529746     0.13700
C2155       C  0.59569086  0.66891584  0.95333231     0.19800
C2156       C  0.62620817  0.68119586  0.94234922    -0.18300
C2157       C  0.63824732  0.71209867  0.93155635    -0.10600
C2158       C  0.62008557  0.73149084  0.93174897     0.22100
C2159       C  0.59034566  0.71990637  0.94325054    -0.19900
C2160       C  0.57813793  0.68888444  0.95389286    -0.10700
C2161       C  0.63153116  0.76404993  0.92033245    -0.14900
C2162       C  0.64774636  0.76911190  0.90379099    -0.28800
C2163       C  0.58337690  0.63587103  0.96448851    -0.03000
C2164       C  0.54906484  0.61452948  0.96880505    -0.39600
H2165       H  0.64054394  0.66662773  0.94197518     0.13200
H2166       H  0.66196114  0.72094015  0.92329693     0.12800
H2167       H  0.57626029  0.73471103  0.94384310     0.12300
H2168       H  0.55530828  0.68097462  0.96274538     0.12500
H2169       H  0.62359047  0.78299035  0.92489809     0.15300
H2170       H  0.65299724  0.74891183  0.89821507     0.14000
H2171       H  0.60289411  0.62841203  0.96877470     0.11700
H2172       H  0.52912021  0.62066474  0.96362126     0.13700
C2173       C  0.58328319  0.91893501  0.95456470     0.19800
C2174       C  0.56436093  0.89221140  0.94133549    -0.18300
C2175       C  0.58161863  0.87944762  0.92995526    -0.10600
C2176       C  0.61849454  0.89319680  0.93151929     0.22100
C2177       C  0.63741036  0.91968592  0.94491061    -0.19900
C2178       C  0.62010267  0.93250549  0.95630211    -0.10700
C2179       C  0.63801382  0.88014223  0.91983881    -0.14900
C2180       C  0.62532071  0.86227179  0.90370822    -0.28800
C2181       C  0.56319045  0.93064507  0.96664139    -0.03000
C2182       C  0.57780173  0.96187229  0.97582657    -0.39600
H2183       H  0.53594045  0.88098926  0.93983154     0.13200
H2184       H  0.56565856  0.85832662  0.92028873     0.12800
H2185       H  0.66573877  0.93048454  0.94660020     0.12300
H2186       H  0.63556743  0.95240372  0.96665638     0.12500
H2187       H  0.66477442  0.88728612  0.92417543     0.15300
H2188       H  0.59981275  0.85707110  0.89833158     0.14000
H2189       H  0.53461322  0.91328084  0.96731346     0.11700
H2190       H  0.60592120  0.98071680  0.97456876     0.13700
C2191       C  0.59820265  0.90218367  0.85433123     0.19800
C2192       C  0.59949825  0.93402931  0.85960617    -0.18300
C2193       C  0.57812567  0.94552242  0.85074463    -0.10600
C2194       C  0.55489596  0.92542053  0.83621244     0.22100
C2195       C  0.55315238  0.89329328  0.83111920    -0.19900
C2196       C  0.57447360  0.88171911  0.84003146    -0.10700
C2197       C  0.53214560  0.93683066  0.82599297    -0.14900
C2198       C  0.53822035  0.97049444  0.82573579    -0.28800
C2199       C  0.62100646  0.89103803  0.86472600    -0.03000
C2200       C  0.62383826  0.86209761  0.86082688    -0.39600
H2201       H  0.61701222  0.95007422  0.87077561     0.13200
H2202       H  0.57969698  0.96986121  0.85560194     0.12800
H2203       H  0.53532666  0.87712351  0.82008083     0.12300
H2204       H  0.57183490  0.85665936  0.83568090     0.12500
H2205       H  0.51033699  0.91700427  0.81765780     0.15300
H2206       H  0.55906325  0.99095146  0.83417356     0.14000
H2207       H  0.63636464  0.90771517  0.87634886     0.11700
H2208       H  0.61177614  0.84659225  0.84837562     0.13700
C2209       C  0.59488960  0.70166831  0.85523778     0.19800
C2210       C  0.57727339  0.66870249  0.86458756    -0.18300
C2211       C  0.56034876  0.63669113  0.85458908    -0.10600
C2212       C  0.56012194  0.63707793  0.83496056     0.22100
C2213       C  0.57751337  0.67001677  0.82561295    -0.19900
C2214       C  0.59500014  0.70197551  0.83559883    -0.10700
C2215       C  0.54048190  0.60404633  0.82372183    -0.14900
C2216       C  0.53708133  0.57225556  0.82854305    -0.28800
C2217       C  0.61068158  0.73499977  0.86644029    -0.03000
C2218       C  0.63857501  0.76632427  0.86098058    -0.39600
H2219       H  0.57642951  0.66774750  0.87971686     0.13200
H2220       H  0.54652037  0.61184314  0.86222433     0.12800
H2221       H  0.57741962  0.67100735  0.81048135     0.12300
H2222       H  0.60746467  0.72680876  0.82790009     0.12500
H2223       H  0.52940806  0.60666237  0.81057073     0.15300
H2224       H  0.54687655  0.56915001  0.84201509     0.14000
H2225       H  0.59856079  0.73327844  0.87988502     0.11700
H2226       H  0.64998897  0.76869870  0.84725713     0.13700
C2227       C  0.80211978  0.90687036  0.85296462     0.19500
C2228       C  0.83399284  0.91248007  0.86115280    -0.18300
C2229       C  0.86656928  0.93383526  0.85243422    -0.10600
C2230       C  0.86815453  0.94993417  0.83505249     0.22100
C2231       C  0.83637944  0.94507809  0.82703182    -0.19900
C2232       C  0.80368743  0.92377576  0.83582958    -0.10700
C2233       C  0.90195921  0.97088466  0.82455394    -0.14900
C2234       C  0.93137056  0.96840300  0.82764264    -0.28800
C2235       C  0.76843763  0.88340581  0.86307177    -0.03000
C2236       C  0.73649363  0.88018547  0.85922118    -0.39600
H2237       H  0.83374790  0.90030679  0.87447515     0.13200
H2238       H  0.89024815  0.93759737  0.85950772     0.12800
H2239       H  0.83675657  0.95719980  0.81367348     0.12300
H2240       H  0.77993710  0.92028086  0.82894897     0.12500
H2241       H  0.90180592  0.98715389  0.81297092     0.15300
H2242       H  0.93287974  0.95336082  0.83941170     0.14000
H2243       H  0.77041609  0.86866030  0.87492488     0.11700
H2244       H  0.73255434  0.89254052  0.84691656     0.13700
C2245       C  0.87079870  0.92804157  0.77302069     0.19800
C2246       C  0.85087634  0.89212239  0.76796970    -0.18300
C2247       C  0.82224154  0.88074075  0.75556421    -0.10600
C2248       C  0.81287461  0.90522880  0.74809243     0.22100
C2249       C  0.83187855  0.94082627  0.75391448    -0.19900
C2250       C  0.86052279  0.95216717  0.76621937    -0.10700
C2251       C  0.78358596  0.89515614  0.73434266    -0.14900
C2252       C  0.76857437  0.86473962  0.72446385    -0.28800
C2253       C  0.90200794  0.93981865  0.78548295    -0.03000
C2254       C  0.93059574  0.97236665  0.78395106    -0.39600
H2255       H  0.85792327  0.87296205  0.77335206     0.13200
H2256       H  0.80764494  0.85281862  0.75203724     0.12800
H2257       H  0.82483921  0.96011372  0.74872170     0.12300
H2258       H  0.87450403  0.97981075  0.77044466     0.12500
H2259       H  0.77478402  0.91437419  0.73177459     0.15300
H2260       H  0.77705251  0.84519658  0.72634879     0.14000
H2261       H  0.90217896  0.92102810  0.79558483     0.11700
H2262       H  0.93231192  0.98975971  0.77251286     0.13700
C2263       C  0.55018330  0.60937060  0.75713212     0.19800
C2264       C  0.53138230  0.61778828  0.74394964    -0.18300
C2265       C  0.54903201  0.64779582  0.73252994    -0.10600
C2266       C  0.58597990  0.66988880  0.73406985     0.22100
C2267       C  0.60489354  0.66096798  0.74691100    -0.19900
C2268       C  0.58724628  0.63105671  0.75837251    -0.10700
C2269       C  0.60590897  0.70172113  0.72214049    -0.14900
C2270       C  0.59154186  0.72028313  0.71461948    -0.28800
C2271       C  0.53035248  0.57725513  0.76890608    -0.03000
C2272       C  0.54225024  0.57277054  0.78549728    -0.39600
H2273       H  0.50290013  0.60112861  0.74251872     0.13200
H2274       H  0.53374309  0.65314848  0.72232774     0.12800
H2275       H  0.63345330  0.67728478  0.74811767     0.12300
H2276       H  0.60285991  0.62477017  0.76787677     0.12500
H2277       H  0.63402929  0.71120160  0.72022808     0.15300
H2278       H  0.56407241  0.71260373  0.71726324     0.14000
H2279       H  0.00420481  0.55372001  0.76201135     0.11700
H2280       H  0.56713267  0.59343460  0.79123467     0.13700
C2281       C  0.57822439  0.91493016  0.73182951     0.19800
C2282       C  0.54908308  0.89693446  0.74378094    -0.18300
C2283       C  0.53762787  0.91581079  0.75483208    -0.10600
C2284       C  0.55480220  0.95320248  0.75396214     0.22100
C2285       C  0.58298259  0.97118212  0.74143768    -0.19900
C2286       C  0.59482082  0.95231451  0.73056981    -0.10700
C2287       C  0.54293191  0.97367006  0.76560242    -0.14900
C2288       C  0.53127242  0.96372107  0.78318222    -0.28800
C2289       C  0.59001441  0.89378172  0.72066331    -0.03000
C2290       C  0.62375533  0.90657379  0.71507856    -0.39600
H2291       H  0.53540591  0.86815198  0.74475749     0.13200
H2292       H  0.51502210  0.90107157  0.76387993     0.12800
H2293       H  0.59616828  0.99991916  0.74025850     0.12300
H2294       H  0.61657949  0.96702778  0.72103600     0.12500
H2295       H  0.54526067  0.99802643  0.75984699     0.15300
H2296       H  0.53255609  0.94132291  0.78912267     0.14000
H2297       H  0.57062532  0.86616707  0.71778528     0.11700
H2298       H  0.64382899  0.93347253  0.71876859     0.13700
C2299       C  0.72949796  0.72771280  0.40282546     0.19800
C2300       C  0.70550447  0.71254286  0.41762194    -0.18300
C2301       C  0.69596792  0.73347632  0.42835062    -0.10600
C2302       C  0.71010222  0.76998008  0.42430588     0.22100
C2303       C  0.73251322  0.78453694  0.40887079    -0.19900
C2304       C  0.74216054  0.76373986  0.39826075    -0.10700
C2305       C  0.70177636  0.79365007  0.43557037    -0.14900
C2306       C  0.69278618  0.78776698  0.45369698    -0.28800
C2307       C  0.74168442  0.70605296  0.39244908    -0.03000
C2308       C  0.77517598  0.72095739  0.38623749    -0.39600
H2309       H  0.69483604  0.68470520  0.42116760     0.13200
H2310       H  0.67745236  0.72093483  0.43968666     0.12800
H2311       H  0.74313843  0.81232190  0.40519577     0.12300
H2312       H  0.75961074  0.77597519  0.38647136     0.12500
H2313       H  0.70546914  0.81794122  0.42898979     0.15300
H2314       H  0.69162395  0.76488038  0.46064852     0.14000
H2315       H  0.72368011  0.67774334  0.39056774     0.11700
H2316       H  0.79342283  0.74878393  0.38933799     0.13700
C2317       C  0.55989861  0.77393383  0.42480634     0.19800
C2318       C  0.55120630  0.79005872  0.41022389    -0.18300
C2319       C  0.52122955  0.77005314  0.39916938    -0.10600
C2320       C  0.00081985  0.73668558  0.40196194     0.22100
C2321       C  0.50894989  0.71683514  0.41642053    -0.19900
C2322       C  0.53888024  0.73692220  0.42758501    -0.10700
C2323       C  0.96813986  0.71570805  0.39078505    -0.14900
C2324       C  0.94754777  0.72935471  0.38563301    -0.28800
C2325       C  0.59158422  0.79641496  0.43642171    -0.03000
C2326       C  0.59556754  0.78796920  0.45401795    -0.39600
H2327       H  0.56741136  0.81834083  0.40752915     0.13200
H2328       H  0.01526026  0.78796053  0.38938350     0.12800
H2329       H  0.99581028  0.69057866  0.41662187     0.12300
H2330       H  0.54558465  0.72330151  0.43820297     0.12500
H2331       H  0.96003246  0.68819883  0.38753326     0.15300
H2332       H  0.95456686  0.75612357  0.38989922     0.14000
H2333       H  0.61143015  0.82173118  0.43058016     0.11700
H2334       H  0.57456383  0.76422732  0.46053690     0.13700
C2335       C  0.74252407  0.49940507  0.40306916     0.19800
C2336       C  0.71150252  0.98801397  0.41437475    -0.18300
C2337       C  0.70013624  0.95740042  0.42539136    -0.10600
C2338       C  0.71600614  0.93599085  0.42359100     0.22100
C2339       C  0.74258074  0.94528434  0.41016412    -0.19900
C2340       C  0.75410693  0.97598994  0.39925166    -0.10700
C2341       C  0.70516484  0.90355050  0.43519397    -0.14900
C2342       C  0.69221183  0.89986024  0.45257546    -0.28800
C2343       C  0.75445904  0.53272510  0.39195660    -0.03000
C2344       C  0.78754916  0.55202743  0.38514741    -0.39600
H2345       H  0.70110111  0.50432545  0.41696629     0.13200
H2346       H  0.67867811  0.95040363  0.43511306     0.12800
H2347       H  0.75478057  0.92891674  0.40825226     0.12300
H2348       H  0.77922611  0.48433776  0.39127530     0.12500
H2349       H  0.71038989  0.88320964  0.42975936     0.15300
H2350       H  0.68952527  0.92129677  0.45865754     0.14000
H2351       H  0.73574204  0.54224461  0.38984153     0.11700
H2352       H  0.80705106  0.54384124  0.38802511     0.13700
C2353       C  0.76768735  0.70201785  0.60054329     0.19800
C2354       C  0.75812786  0.68884016  0.61883578    -0.18300
C2355       C  0.74460393  0.70404802  0.63117616    -0.10600
C2356       C  0.73991953  0.73249892  0.62543135     0.22100
C2357       C  0.74974957  0.74593240  0.60715269    -0.19900
C2358       C  0.76314576  0.73070015  0.59480980    -0.10700
C2359       C  0.72579496  0.74830427  0.63892594    -0.14900
C2360       C  0.70936714  0.76621090  0.63338777    -0.28800
C2361       C  0.78203294  0.68488234  0.58804950    -0.03000
C2362       C  0.79762213  0.69822740  0.57149047    -0.39600
H2363       H  0.76131634  0.66677613  0.62364942     0.13200
H2364       H  0.73755668  0.69340098  0.64521269     0.12800
H2365       H  0.74776896  0.76862931  0.60232473     0.12300
H2366       H  0.76960526  0.74159412  0.58085138     0.12500
H2367       H  0.72874918  0.74486974  0.65376436     0.15300
H2368       H  0.70482243  0.76844467  0.61864180     0.14000
H2369       H  0.77977083  0.65999556  0.59284745     0.11700
H2370       H  0.80024826  0.72284573  0.56610560     0.13700
C2371       C  0.50331880  0.77517110  0.61899674     0.19800
C2372       C  0.96926155  0.75455892  0.62175865    -0.18300
C2373       C  0.94305548  0.74052430  0.60795712    -0.10600
C2374       C  0.95104341  0.75249425  0.58934716     0.22100
C2375       C  0.98498843  0.78043612  0.58509929    -0.19900
C2376       C  0.50912270  0.79224690  0.60149777    -0.10700
C2377       C  0.92434035  0.73602514  0.57424618    -0.14900
C2378       C  0.90027579  0.70123422  0.57460206    -0.28800
C2379       C  0.53126213  0.78735304  0.63359858    -0.03000
C2380       C  0.56585731  0.80362262  0.62932241    -0.39600
H2381       H  0.96270234  0.74413042  0.63586011     0.13200
H2382       H  0.91661746  0.72015345  0.61188823     0.12800
H2383       H  0.99143373  0.79067004  0.57095797     0.12300
H2384       H  0.53374159  0.81631901  0.59847405     0.12500
H2385       H  0.92477600  0.75245804  0.56258663     0.15300
H2386       H  0.89984240  0.68474633  0.58620663     0.14000
H2387       H  0.52313917  0.78004231  0.64802890     0.11700
H2388       H  0.57416103  0.80899833  0.61483801     0.13700
C2389       C  0.77442581  0.00927218  0.63104947     0.19800
C2390       C  0.78953979  0.50872505  0.61286287    -0.18300
C2391       C  0.79801022  0.53589911  0.59980339    -0.10600
C2392       C  0.79130135  0.56386096  0.60376680     0.22100
C2393       C  0.77793373  0.56498833  0.62141313    -0.19900
C2394       C  0.76679273  0.03645151  0.63482938    -0.10700
C2395       C  0.79791636  0.59267613  0.59027732    -0.14900
C2396       C  0.80847524  0.59448163  0.57246963    -0.28800
C2397       C  0.76158155  0.97895995  0.64417623    -0.03000
C2398       C  0.74794013  0.94559106  0.63786617    -0.39600
H2399       H  0.79454214  0.48729291  0.60937128     0.13200
H2400       H  0.80939893  0.53445140  0.58670341     0.12800
H2401       H  0.77309931  0.58651839  0.62499789     0.12300
H2402       H  0.75400451  0.03647242  0.64777028     0.12500
H2403       H  0.79299663  0.61333081  0.59539814     0.15300
H2404       H  0.81161712  0.57327411  0.56652887     0.14000
H2405       H  0.75800158  0.98344496  0.65873019     0.11700
H2406       H  0.74883983  0.94080752  0.62305268     0.13700
C2407       C  0.75962432  0.72343686  0.52118037     0.19800
C2408       C  0.72408996  0.71540945  0.52186553    -0.18300
C2409       C  0.71317224  0.73719960  0.51283543    -0.10600
C2410       C  0.73778722  0.76786292  0.50307644     0.22100
C2411       C  0.77328634  0.77588055  0.50239274    -0.19900
C2412       C  0.78421731  0.75416248  0.51145108    -0.10700
C2413       C  0.72706555  0.79073123  0.49246760    -0.14900
C2414       C  0.69772974  0.79268765  0.49619508    -0.28800
C2415       C  0.77047362  0.70062161  0.53178223    -0.03000
C2416       C  0.80068151  0.69995233  0.52855975    -0.39600
H2417       H  0.70463502  0.69204317  0.52933559     0.13200
H2418       H  0.68536678  0.72950286  0.51323158     0.12800
H2419       H  0.79274352  0.79925883  0.49493112     0.12300
H2420       H  0.81205581  0.76203155  0.51107489     0.12500
H2421       H  0.74397812  0.80653842  0.48102067     0.15300
H2422       H  0.68247412  0.78019605  0.50868220     0.14000
H2423       H  0.75295476  0.68389663  0.54280649     0.11700
H2424       H  0.81651449  0.71322458  0.51635770     0.13700
C2425       C  0.73808509  0.96547640  0.50210446     0.19800
C2426       C  0.77235345  0.49397879  0.49850315    -0.18300
C2427       C  0.78524067  0.52615413  0.50813992    -0.10600
C2428       C  0.76463295  0.53003992  0.52204573     0.22100
C2429       C  0.73112814  0.50088611  0.52609737    -0.19900
C2430       C  0.71522555  0.97100576  0.51370815    -0.10700
C2431       C  0.77720069  0.56322031  0.53316996    -0.14900
C2432       C  0.80619289  0.59470803  0.52924324    -0.28800
C2433       C  0.72580794  0.93219907  0.49113299    -0.03000
C2434       C  0.69676801  0.90095294  0.49535422    -0.39600
H2435       H  0.78876740  0.49182945  0.48783363     0.13200
H2436       H  0.81147231  0.54750481  0.50474694     0.12800
H2437       H  0.71466306  0.50300699  0.53674665     0.12300
H2438       H  0.68757669  0.95103207  0.51510039     0.12500
H2439       H  0.76131629  0.56170159  0.54516744     0.15300
H2440       H  0.82069329  0.59834252  0.51641296     0.14000
H2441       H  0.74177624  0.93334365  0.47924929     0.11700
H2442       H  0.68270058  0.89810791  0.50827493     0.13700
C2443       C  0.53382653  0.76931705  0.50468642     0.19800
C2444       C  0.50534491  0.77575405  0.50246205    -0.18300
C2445       C  0.97400905  0.75671586  0.51291461    -0.10600
C2446       C  0.96867888  0.72777674  0.52425465     0.22100
C2447       C  0.99597644  0.71938481  0.52574508    -0.19900
C2448       C  0.52997576  0.74205285  0.51697034    -0.10700
C2449       C  0.93568347  0.70681135  0.53525466    -0.14900
C2450       C  0.90449709  0.70458152  0.53068978    -0.28800
C2451       C  0.56617390  0.79028061  0.49322036    -0.03000
C2452       C  0.59763420  0.79241105  0.49684638    -0.39600
H2453       H  0.50754639  0.79653014  0.49309159     0.13200
H2454       H  0.95415594  0.76483021  0.51185489     0.12800
H2455       H  0.99261770  0.69732680  0.53443614     0.12300
H2456       H  0.55081142  0.73547114  0.51876064     0.12500
H2457       H  0.93695439  0.69201098  0.54726944     0.15300
H2458       H  0.90177160  0.71574074  0.51758264     0.14000
H2459       H  0.56402639  0.80480353  0.48129906     0.11700
H2460       H  0.60168172  0.78153104  0.50971683     0.13700
loop_ 
_geom_bond_atom_site_label_1 
_geom_bond_atom_site_label_2 
_geom_bond_distance 
_geom_bond_site_symmetry_2 
_ccdc_geom_bond_type 
C1            H2   1.108       .  S
C1            C7   1.532       .  S
C1            C6   1.532       .  S
C1            C5   1.525       .  S
C3            H4   1.112       .  S
C3            C9   1.547       .  S
C3            C8   1.539       .  S
C3           C10   1.540       .  S
C5            C8   1.373       .  D
C5          C533   1.472       .  S
C6            C9   1.378       .  D
C6          C551   1.486       .  S
C7           C10   1.376       .  D
C7          C517   1.484       .  S
C8          C605   1.487       .  S
C9          C587   1.491       .  S
C10         C571   1.488       .  S
C11          H12   1.112       .  S
C11          C17   1.538       .  S
C11          C16   1.535       .  S
C11          C15   1.536       .  S
C13          H14   1.108       .  S
C13          C19   1.540       .  S
C13          C18   1.539       .  S
C13          C20   1.539       .  S
C15          C18   1.377       .  D
C15         C569   1.488       .  S
C16          C19   1.375       .  D
C16         C607   1.489       .  S
C17          C20   1.377       .  D
C17         C589   1.489       .  S
C18         C461   1.487       .  S
C19         C481   1.481       .  S
C20         C497   1.490       .  S
Zn21         O25   1.960       .  S
Zn21         O26   2.033       .  S
Zn21         O30   2.003       .  S
Zn21         O37   2.013       .  S
Zn22         O25   1.941       .  S
Zn22         O27   1.984       .  S
Zn22         O29   1.988       .  S
Zn22         O33   1.983       .  S
Zn23         O25   1.967       .  S
Zn23         O28   2.016       .  S
Zn23         O31   2.030       .  S
Zn23         O34   2.028       .  S
Zn24         O25   1.957       .  S
Zn24         O32   2.016       .  S
Zn24         O35   2.012       .  S
Zn24         O36   2.014       .  S
O26          C38   1.274       .  A
O27          C39   1.268       .  A
O28          C40   1.273       .  A
O29          C38   1.268       .  A
O30          C40   1.274       .  A
O31          C39   1.275       .  A
O32          C41   1.272       .  A
O33          C42   1.268       .  A
O34          C41   1.275       .  A
O35          C42   1.273       .  A
O36          C43   1.274       .  A
O37          C43   1.272       .  A
C38         C515   1.471       .  S
C39         C535   1.469       .  S
C40         C425   1.473       .  S
C41         C445   1.478       .  S
C42         C553   1.464       .  S
C43         C407   1.475       .  S
C44          H45   1.108       .  S
C44          C50   1.536   1_655  S
C44         C664   1.542   1_645  S
C44        C1893   1.529   1_545  S
C46          H47   1.112       .  S
C46          C53   1.540       .  S
C46         C667   1.537   1_545  S
C46        C1896   1.541   1_445  S
C48        C1889   1.529       .  S
C48          C51   1.379       .  D
C48         C409   1.478       .  S
C49         C659   1.540       .  S
C49          C52   1.376       .  D
C49         C443   1.492       .  S
C50          C53   1.376       .  D
C50         C427   1.478       .  S
C51        C1891   1.545       .  S
C51         C389   1.492       .  S
C52         C661   1.536       .  S
C52         C353   1.483       .  S
C53         C371   1.496       .  S
C54          H55   1.111       .  S
C54          C60   1.542       .  S
C54          C59   1.542       .  S
C54          C58   1.538       .  S
C56          H57   1.109       .  S
C56          C62   1.538       .  S
C56          C61   1.537       .  S
C56          C63   1.534       .  S
C58          C61   1.377       .  D
C58         C355   1.488       .  S
C59          C62   1.377       .  D
C59         C373   1.495       .  S
C60          C63   1.376       .  D
C60         C391   1.495       .  S
C61         C335   1.488       .  S
C62         C317   1.483       .  S
C63         C299   1.482       .  S
C64          H65   1.110       .  S
C64          C70   1.536       .  S
C64          C69   1.531       .  S
C64          C68   1.523       .  S
C66          H67   1.112       .  S
C66          C72   1.538       .  S
C66          C71   1.544       .  S
C66          C73   1.533       .  S
C68          C71   1.378       .  D
C68         C209   1.473       .  S
C69          C72   1.375       .  D
C69         C227   1.481       .  S
C70          C73   1.375       .  D
C70         C193   1.478       .  S
C71         C263   1.486       .  S
C72         C245   1.487       .  S
C73         C283   1.486       .  S
C74          H75   1.112       .  S
C74          C79   1.531       .  S
C74        C1925   1.541       .  S
C74         C693   1.540       .  S
C76          H77   1.109       .  S
C76          C82   1.539       .  S
C76         C696   1.531       .  S
C76        C1928   1.537       .  S
C78         C689   1.540       .  S
C78          C81   1.375       .  D
C78         C247   1.487       .  S
C79          C82   1.374       .  D
C79         C281   1.488       .  S
C80        C1919   1.539       .  S
C80          C83   1.379       .  D
C80         C265   1.486       .  S
C81         C691   1.531   1_545  S
C81         C173   1.478       .  S
C82         C155   1.481       .  S
C83        C1921   1.540       .  S
C83         C137   1.491       .  S
Zn84         O88   1.965       .  S
Zn84         O89   2.005       .  S
Zn84         O93   2.029       .  S
Zn84        O100   2.029       .  S
Zn85         O88   1.983       .  S
Zn85         O90   2.067       .  S
Zn85         O92   2.048       .  S
Zn85         O96   2.040       .  S
Zn86         O88   1.938       .  S
Zn86         O91   1.979       .  S
Zn86         O94   1.972       .  S
Zn86         O97   1.992       .  S
Zn87         O88   1.959       .  S
Zn87         O95   2.029       .  S
Zn87         O98   2.006       .  S
Zn87         O99   2.012       .  S
O89         C101   1.272       .  A
O90         C102   1.278       .  A
O91         C103   1.267       .  A
O92         C101   1.278       .  A
O93         C103   1.274       .  A
O94         C102   1.267       .  A
O95         C104   1.273       .  A
O96         C105   1.278       .  A
O97         C104   1.268       .  A
O98         C105   1.273       .  A
O99         C106   1.271       .  A
O100        C106   1.274       .  A
C101        C499   1.477       .  S
C102        C463   1.474       .  S
C103        C479   1.468       .  S
C104        C157   1.473       .  S
C105        C139   1.475       .  S
C106        C175   1.474       .  S
Zn107      O1341   1.965       .  S
Zn107       O112   2.026       .  S
Zn107       O116   2.016   1_554  S
Zn107       O738   2.024   1_554  S
Zn108       O111   1.953       .  S
Zn108       O113   2.005       .  S
Zn108      O1345   2.001       .  S
Zn108       O734   1.996   1_545  S
Zn109       O111   1.953   1_556  S
Zn109       O117   2.010   1_556  S
Zn109      O1344   1.999       .  S
Zn109       O735   2.006   1_545  S
Zn110       O726   1.964       .  S
Zn110       O118   2.023   1_554  S
Zn110       O121   2.023       .  S
Zn110      O1352   2.021   1_554  S
O111      Zn1337   1.967       .  S
O111       Zn725   1.965   1_545  S
O112        C124   1.275       .  A
O113        C125   1.272       .  A
O114      Zn1339   2.006   1_456  S
O114        C126   1.272       .  A
O115      Zn1338   1.996   1_455  S
O115        C124   1.270       .  A
O116        C126   1.274       .  A
O117        C125   1.270       .  A
O118        C127   1.273       .  A
O119       Zn723   1.994       .  S
O119        C128   1.270       .  A
O120       Zn724   2.007       .  S
O120        C127   1.273       .  A
O121        C128   1.275       .  A
O122      Zn1340   2.023   1_456  S
O122        C129   1.275       .  A
O123       Zn722   2.027   1_556  S
O123        C129   1.274       .  A
C124        C211   1.471       .  S
C125        C229   1.473       .  S
C126        C319   1.472       .  S
C127        C301   1.477       .  S
C128        C191   1.469       .  S
C129        C337   1.480       .  S
C130        C138   1.486       .  S
C130        C131   1.408       .  A
C130        C135   1.400       .  A
C131        C132   1.400       .  A
C131        H140   1.082       .  S
C132        C133   1.408       .  A
C132        H141   1.080       .  S
C133        C136   1.490       .  S
C133        C134   1.406       .  A
C134        C135   1.397       .  A
C134        H142   1.084       .  S
C135        H143   1.083       .  S
C136        C137   1.348       .  D
C136        H144   1.082       .  S
C137        H145   1.081       .  S
C138        C139   1.344       .  D
C138        H146   1.087       .  S
C139        H147   1.086       .  S
C148        C156   1.487       .  S
C148        C149   1.402       .  A
C148        C153   1.410       .  A
C149        C150   1.397       .  A
C149        H158   1.083       .  S
C150        C151   1.409       .  A
C150        H159   1.082       .  S
C151        C154   1.483       .  S
C151        C152   1.400       .  A
C152        C153   1.397       .  A
C152        H160   1.084       .  S
C153        H161   1.081       .  S
C154        C155   1.341       .  D
C154        H162   1.086       .  S
C155        H163   1.084       .  S
C156        C157   1.344       .  D
C156        H164   1.087       .  S
C157        H165   1.084       .  S
C166        C174   1.480       .  S
C166        C167   1.402       .  A
C166        C171   1.406       .  A
C167        C168   1.399       .  A
C167        H176   1.083       .  S
C168        C169   1.405       .  A
C168        H177   1.083       .  S
C169        C172   1.478       .  S
C169        C170   1.402       .  A
C170        C171   1.399       .  A
C170        H178   1.083       .  S
C171        H179   1.083       .  S
C172        C173   1.341       .  D
C172        H180   1.087       .  S
C173        H181   1.086       .  S
C174        C175   1.343       .  D
C174        H182   1.087       .  S
C175        H183   1.087       .  S
C184        C192   1.484       .  S
C184        C185   1.404       .  A
C184        C189   1.408       .  A
C185        C186   1.397       .  A
C185        H194   1.083       .  S
C186        C187   1.401       .  A
C186        H195   1.083       .  S
C187        C190   1.482       .  S
C187        C188   1.406       .  A
C188        C189   1.394       .  A
C188        H196   1.082       .  S
C189        H197   1.080       .  S
C190        C191   1.343       .  D
C190        H198   1.087       .  S
C191        H199   1.085       .  S
C192        C193   1.344       .  D
C192        H200   1.087       .  S
C193        H201   1.082       .  S
C202        C210   1.482       .  S
C202        C203   1.400       .  A
C202        C207   1.408       .  A
C203        C204   1.397       .  A
C203        H212   1.083       .  S
C204        C205   1.409       .  A
C204        H213   1.082       .  S
C205        C208   1.482       .  S
C205        C206   1.400       .  A
C206        C207   1.397       .  A
C206        H214   1.083       .  S
C207        H215   1.082       .  S
C208        C209   1.341       .  D
C208        H216   1.087       .  S
C209        H217   1.085       .  S
C210        C211   1.343       .  D
C210        H218   1.087       .  S
C211        H219   1.086       .  S
C220        C228   1.486       .  S
C220        C221   1.404       .  A
C220        C225   1.409       .  A
C221        C222   1.396       .  A
C221        H230   1.083       .  S
C222        C223   1.406       .  A
C222        H231   1.081       .  S
C223        C226   1.481       .  S
C223        C224   1.402       .  A
C224        C225   1.396       .  A
C224        H232   1.084       .  S
C225        H233   1.080       .  S
C226        C227   1.343       .  D
C226        H234   1.086       .  S
C227        H235   1.084       .  S
C228        C229   1.346       .  D
C228        H236   1.087       .  S
C229        H237   1.083       .  S
C238        C246   1.486       .  S
C238        C239   1.403       .  A
C238        C243   1.407       .  A
C239        C240   1.399       .  A
C239        H248   1.083       .  S
C240        C241   1.409       .  A
C240        H249   1.080       .  S
C241        C244   1.488       .  S
C241        C242   1.404       .  A
C242        C243   1.398       .  A
C242        H250   1.084       .  S
C243        H251   1.081       .  S
C244        C245   1.346       .  D
C244        H252   1.087       .  S
C245        H253   1.083       .  S
C246        C247   1.346       .  D
C246        H254   1.085       .  S
C247        H255   1.085       .  S
C256        C264   1.489       .  S
C256        C257   1.403       .  A
C256        C261   1.409       .  A
C257        C258   1.398       .  A
C257        H266   1.083       .  S
C258        C259   1.408       .  A
C258        H267   1.081       .  S
C259        C262   1.488       .  S
C259        C260   1.403       .  A
C260        C261   1.399       .  A
C260        H268   1.083       .  S
C261        H269   1.081       .  S
C262        C263   1.346       .  D
C262        H270   1.085       .  S
C263        H271   1.084       .  S
C264        C265   1.345       .  D
C264        H272   1.087       .  S
C265        H273   1.084       .  S
C274        C282   1.488       .  S
C274        C275   1.404       .  A
C274        C279   1.407       .  A
C275        C276   1.400       .  A
C275        H284   1.083       .  S
C276        C277   1.409       .  A
C276        H285   1.080       .  S
C277        C280   1.488       .  S
C277        C278   1.403       .  A
C278        C279   1.396       .  A
C278        H286   1.084       .  S
C279        H287   1.081       .  S
C280        C281   1.346       .  D
C280        H288   1.086       .  S
C281        H289   1.083       .  S
C282        C283   1.346       .  D
C282        H290   1.086       .  S
C283        H291   1.084       .  S
C292        C300   1.486       .  S
C292        C293   1.404       .  A
C292        C297   1.408       .  A
C293        C294   1.397       .  A
C293        H302   1.083       .  S
C294        C295   1.406       .  A
C294        H303   1.082       .  S
C295        C298   1.483       .  S
C295        C296   1.403       .  A
C296        C297   1.398       .  A
C296        H304   1.083       .  S
C297        H305   1.081       .  S
C298        C299   1.343       .  D
C298        H306   1.087       .  S
C299        H307   1.085       .  S
C300        C301   1.347       .  D
C300        H308   1.087       .  S
C301        H309   1.084       .  S
C310        C318   1.481       .  S
C310        C311   1.402       .  A
C310        C315   1.406       .  A
C311        C312   1.399       .  A
C311        H320   1.083       .  S
C312        C313   1.408       .  A
C312        H321   1.082       .  S
C313        C316   1.482       .  S
C313        C314   1.402       .  A
C314        C315   1.395       .  A
C314        H322   1.083       .  S
C315        H323   1.082       .  S
C316        C317   1.343       .  D
C316        H324   1.086       .  S
C317        H325   1.084       .  S
C318        C319   1.344       .  D
C318        H326   1.087       .  S
C319        H327   1.086       .  S
C328        C336   1.490       .  S
C328        C329   1.404       .  A
C328        C333   1.408       .  A
C329        C330   1.399       .  A
C329        H338   1.083       .  S
C330        C331   1.407       .  A
C330        H339   1.082       .  S
C331        C334   1.489       .  S
C331        C332   1.404       .  A
C332        C333   1.400       .  A
C332        H340   1.083       .  S
C333        H341   1.081       .  S
C334        C335   1.346       .  D
C334        H342   1.087       .  S
C335        H343   1.084       .  S
C336        C337   1.348       .  D
C336        H344   1.087       .  S
C337        H345   1.084       .  S
C346        C354   1.490       .  S
C346        C347   1.404       .  A
C346        C351   1.408       .  A
C347        C348   1.397       .  A
C347        H356   1.084       .  S
C348        C349   1.408       .  A
C348        H357   1.080       .  S
C349        C352   1.491       .  S
C349        C350   1.405       .  A
C350        C351   1.400       .  A
C350        H358   1.083       .  S
C351        H359   1.080       .  S
C352        C353   1.346       .  D
C352        H360   1.087       .  S
C353        H361   1.082       .  S
C354        C355   1.347       .  D
C354        H362   1.086       .  S
C355        H363   1.083       .  S
C364        C372   1.490       .  S
C364        C365   1.406       .  A
C364        C369   1.406       .  A
C365        C366   1.402       .  A
C365        H374   1.084       .  S
C366        C367   1.406       .  A
C366        H375   1.082       .  S
C367        C370   1.488       .  S
C367        C368   1.405       .  A
C368        C369   1.400       .  A
C368        H376   1.084       .  S
C369        H377   1.082       .  S
C370        C371   1.350       .  D
C370        H378   1.084       .  S
C371        H379   1.085       .  S
C372        C373   1.351       .  D
C372        H380   1.085       .  S
C373        H381   1.084       .  S
C382        C390   1.491       .  S
C382        C383   1.404       .  A
C382        C387   1.408       .  A
C383        C384   1.398       .  A
C383        H392   1.084       .  S
C384        C385   1.407       .  A
C384        H393   1.080       .  S
C385        C388   1.495       .  S
C385        C386   1.408       .  A
C386        C387   1.405       .  A
C386        H394   1.084       .  S
C387        H395   1.081       .  S
C388        C389   1.351       .  D
C388        H396   1.085       .  S
C389        H397   1.083       .  S
C390        C391   1.350       .  D
C390        H398   1.086       .  S
C391        H399   1.083       .  S
C400        C408   1.484       .  S
C400        C401   1.401       .  A
C400        C405   1.407       .  A
C401        C402   1.399       .  A
C401        H410   1.083       .  S
C402        C403   1.410       .  A
C402        H411   1.080       .  S
C403        C406   1.487       .  S
C403        C404   1.403       .  A
C404        C405   1.395       .  A
C404        H412   1.084       .  S
C405        H413   1.082       .  S
C406        C407   1.346       .  D
C406        H414   1.087       .  S
C407        H415   1.083       .  S
C408        C409   1.342       .  D
C408        H416   1.087       .  S
C409        H417   1.085       .  S
C418        C426   1.478       .  S
C418        C419   1.402       .  A
C418        C423   1.405       .  A
C419        C420   1.397       .  A
C419        H428   1.083   1_455  S
C420        C421   1.408       .  A
C420        H429   1.081       .  S
C421        C424   1.482       .  S
C421        C422   1.403       .  A
C422        C423   1.395       .  A
C422        H430   1.084       .  S
C423        H431   1.082       .  S
C424        C425   1.345       .  D
C424        H432   1.087       .  S
C425        H433   1.084       .  S
C426        C427   1.342       .  D
C426       H1664   1.087       .  S
C427        H435   1.085       .  S
H434       C1656   1.087       .  S
C436        C444   1.486       .  S
C436        C437   1.402       .  A
C436        C441   1.408       .  A
C437        C438   1.398       .  A
C437        H446   1.083       .  S
C438        C439   1.408       .  A
C438        H447   1.082       .  S
C439        C442   1.487       .  S
C439        C440   1.403       .  A
C440        C441   1.400       .  A
C440        H448   1.083       .  S
C441        H449   1.082       .  S
C442        C443   1.345       .  D
C442        H450   1.085       .  S
C443        H451   1.080       .  S
C444        C445   1.345       .  D
C444        H452   1.087       .  S
C445        H453   1.086       .  S
C454        C462   1.489       .  S
C454        C455   1.402       .  A
C454        C459   1.409       .  A
C455        C456   1.402       .  A
C455        H464   1.083       .  S
C456        C457   1.409       .  A
C456        H465   1.082       .  S
C457        C460   1.484       .  S
C457        C458   1.400       .  A
C458        C459   1.396       .  A
C458        H466   1.084       .  S
C459        H467   1.082       .  S
C460        C461   1.342       .  D
C460        H468   1.086       .  S
C461        H469   1.085       .  S
C462        C463   1.342       .  D
C462        H470   1.086       .  S
C463        H471   1.087       .  S
C472        C480   1.478       .  S
C472        C473   1.399       .  A
C472        C477   1.407       .  A
C473        C474   1.394       .  A
C473        H482   1.084       .  S
C474       C1705   1.408   1_455  A
C474       H1713   1.082       .  S
C475        C478   1.480       .  S
C475       C1704   1.407       .  A
C475       C1706   1.401       .  A
C476        C477   1.400       .  A
C476       C1705   1.403   1_455  A
C476       H1714   1.083   1_455  S
C477        H485   1.083       .  S
C478        C479   1.341       .  D
C478        H486   1.087       .  S
C479        H487   1.086       .  S
C480        C481   1.341       .  D
C480        H488   1.087       .  S
C481        H489   1.086       .  S
H483       C1704   1.082       .  S
H484       C1706   1.083       .  S
C490        C498   1.490   1_565  S
C490       C1106   1.404       .  A
C490       C1110   1.410       .  A
C491        C492   1.401       .  A
C491       C1105   1.404       .  A
C491       H1115   1.083       .  S
C492        C493   1.408       .  A
C492        H501   1.082       .  S
C493        C496   1.490       .  S
C493        C494   1.403       .  A
C494        C495   1.400       .  A
C494        H502   1.083       .  S
C495       C1105   1.409       .  A
C495       H1118   1.082       .  S
C496        C497   1.346       .  D
C496        H504   1.086       .  S
C497        H505   1.084       .  S
C498        C499   1.345       .  D
C498        H506   1.087       .  S
C499        H507   1.085       .  S
H500       C1106   1.083   1_545  S
H503       C1110   1.081       .  S
C508        C516   1.485       .  S
C508        C509   1.406       .  A
C508        C513   1.406       .  A
C509        C510   1.399       .  A
C509        H518   1.084       .  S
C510        C511   1.402       .  A
C510        H519   1.083       .  S
C511        C514   1.487       .  S
C511        C512   1.409       .  A
C512        C513   1.395       .  A
C512        H520   1.081       .  S
C513        H521   1.080       .  S
C514        C515   1.343       .  D
C514        H522   1.087       .  S
C515        H523   1.085       .  S
C516        C517   1.346       .  D
C516        H524   1.083       .  S
C517        H525   1.082       .  S
C526        C534   1.481       .  S
C526        C531   1.409       .  A
C526       C1757   1.400   1_455  A
C527        C528   1.396       .  A
C527       C1756   1.400       .  A
C527        H536   1.083       .  S
C528        C529   1.409       .  A
C528        H537   1.082       .  S
C529        C532   1.484       .  S
C529        C530   1.402       .  A
C530       C1761   1.399       .  A
C530        H538   1.083       .  S
C531       C1760   1.397   1_455  A
C531        H539   1.082       .  S
C532        C533   1.340       .  D
C532        H540   1.087       .  S
C533        H541   1.084       .  S
C534        C535   1.341       .  D
C534        H542   1.087       .  S
C535        H543   1.086       .  S
C544        C552   1.475       .  S
C544        C549   1.399       .  A
C544       C1160   1.405       .  A
C545        C546   1.395       .  A
C545       C1159   1.407       .  A
C545        H554   1.082   1_545  S
C546        C547   1.406       .  A
C546        H555   1.080       .  S
C547        C550   1.480       .  S
C547        C548   1.405       .  A
C548       C1164   1.394       .  A
C548        H556   1.084       .  S
C549       C1163   1.394       .  A
C549        H557   1.083       .  S
C550        C551   1.346       .  D
C550        H558   1.081       .  S
C551        H559   1.082       .  S
C552        C553   1.341       .  D
C552        H560   1.087       .  S
C553        H561   1.086       .  S
C562        C570   1.488       .  S
C562        C563   1.403       .  A
C562        C567   1.408       .  A
C563        C564   1.398       .  A
C563        H572   1.083       .  S
C564        C565   1.408       .  A
C564        H573   1.081       .  S
C565        C568   1.487       .  S
C565        C566   1.403       .  A
C566        C567   1.399       .  A
C566        H574   1.083       .  S
C567        H575   1.081       .  S
C568        C569   1.346       .  D
C568        H576   1.087       .  S
C569        H577   1.084       .  S
C570        C571   1.347       .  D
C570        H578   1.086       .  S
C571        H579   1.084       .  S
C580        C588   1.490       .  S
C580        C585   1.408       .  A
C580       C1196   1.404       .  A
C581        C582   1.401   1_565  A
C581       C1195   1.405       .  A
C581        H590   1.083       .  S
C582        C583   1.408       .  A
C582        H591   1.081       .  S
C583        C586   1.492       .  S
C583        C584   1.405       .  A
C584       C1200   1.400   1_545  A
C584        H592   1.083       .  S
C585       C1199   1.399       .  A
C585        H593   1.081       .  S
C586        C587   1.349       .  D
C586        H594   1.086       .  S
C587        H595   1.084       .  S
C588        C589   1.348       .  D
C588        H596   1.086       .  S
C589        H597   1.084       .  S
C598        C606   1.489       .  S
C598        C599   1.403       .  A
C598        C603   1.408       .  A
C599       C1830   1.399   1_455  A
C599        H608   1.083       .  S
C600        C601   1.408       .  A
C600       C1829   1.398       .  A
C600        H609   1.081       .  S
C601        C604   1.488       .  S
C601        C602   1.404       .  A
C602       C1833   1.399       .  A
C602        H610   1.083       .  S
C603       C1832   1.400   1_455  A
C603        H611   1.081       .  S
C604        C605   1.346       .  D
C604        H612   1.085       .  S
C605        H613   1.084       .  S
C606        C607   1.347       .  D
C606        H614   1.086       .  S
C607        H615   1.084       .  S
C616        H617   1.109       .  S
C616        C622   1.532       .  S
C616        C621   1.531       .  S
C616        C620   1.526       .  S
C618        H619   1.112       .  S
C618        C624   1.544       .  S
C618        C623   1.537       .  S
C618        C625   1.536       .  S
C620        C623   1.374       .  D
C620       C1148   1.471       .  S
C621        C624   1.377       .  D
C621       C1166   1.483       .  S
C622        C625   1.375       .  D
C622       C1132   1.484       .  S
C623       C1220   1.485       .  S
C624       C1202   1.489       .  S
C625       C1186   1.483       .  S
C626        H627   1.112       .  S
C626        C632   1.537       .  S
C626        C631   1.534       .  S
C626        C630   1.535       .  S
C628        H629   1.107       .  S
C628        C634   1.540       .  S
C628        C633   1.539       .  S
C628        C635   1.538       .  S
C630        C633   1.377       .  D
C630       C1184   1.483       .  S
C631        C634   1.375       .  D
C631       C1222   1.488       .  S
C632        C635   1.375       .  D
C632       C1204   1.491       .  S
C633       C1076   1.492       .  S
C634       C1096   1.481       .  S
C635       C1112   1.485       .  S
Zn636       O640   1.960       .  S
Zn636       O641   2.035       .  S
Zn636       O645   2.004       .  S
Zn636       O652   2.016       .  S
Zn637       O640   1.939       .  S
Zn637       O642   1.985       .  S
Zn637       O644   1.984       .  S
Zn637       O648   1.975       .  S
Zn638       O640   1.967       .  S
Zn638       O643   2.023       .  S
Zn638       O646   2.034       .  S
Zn638       O649   2.030       .  S
Zn639       O640   1.959       .  S
Zn639       O647   2.012       .  S
Zn639       O650   2.023       .  S
Zn639       O651   2.018       .  S
O641        C653   1.274       .  A
O642        C654   1.268       .  A
O643        C655   1.274       .  A
O644        C653   1.267       .  A
O645        C655   1.274       .  A
O646        C654   1.275       .  A
O647        C656   1.272       .  A
O648        C657   1.267       .  A
O649        C656   1.275       .  A
O650        C657   1.274       .  A
O651        C658   1.275       .  A
O652        C658   1.273       .  A
C653       C1130   1.471       .  S
C654       C1150   1.471       .  S
C655       C1040   1.474       .  S
C656       C1060   1.477       .  S
C657       C1168   1.465       .  S
C658       C1022   1.476       .  S
C659        H660   1.109       .  S
C659        C665   1.535       .  S
C659       C1278   1.530   1_455  S
C661        H662   1.112       .  S
C661       C1281   1.543   1_455  S
C661        C668   1.542       .  S
C663       C1274   1.530   1_565  S
C663        C666   1.379       .  D
C663       C1024   1.481       .  S
C664        C667   1.376       .  D
C664       C1058   1.493       .  S
C665        C668   1.376       .  D
C665       C1042   1.481       .  S
C666       C1276   1.542   1_565  S
C666       C1004   1.487       .  S
C667        C968   1.483       .  S
C668        C986   1.493       .  S
C669        H670   1.112       .  S
C669        C675   1.543       .  S
C669        C674   1.539       .  S
C669        C673   1.538       .  S
C671        H672   1.109       .  S
C671        C677   1.537       .  S
C671        C676   1.537       .  S
C671        C678   1.533       .  S
C673        C676   1.377       .  D
C673        C970   1.490       .  S
C674        C677   1.377       .  D
C674        C988   1.493       .  S
C675        C678   1.377       .  D
C675       C1006   1.492       .  S
C676        C950   1.485       .  S
C677        C932   1.483       .  S
C678        C914   1.486       .  S
C679        H680   1.109       .  S
C679        C685   1.536       .  S
C679        C684   1.532       .  S
C679        C683   1.525       .  S
C681        H682   1.112       .  S
C681        C687   1.539       .  S
C681        C686   1.543       .  S
C681        C688   1.534       .  S
C683        C686   1.378       .  D
C683        C824   1.473       .  S
C684        C687   1.376       .  D
C684        C842   1.485       .  S
C685        C688   1.375       .  D
C685        C808   1.478       .  S
C686        C878   1.489       .  S
C687        C860   1.486       .  S
C688        C898   1.489       .  S
C689        H690   1.112       .  S
C689       C1310   1.544       .  S
C689        C694   1.531   1_545  S
C691        H692   1.109       .  S
C691        C697   1.539       .  S
C691       C1313   1.538   1_565  S
C693        C696   1.376       .  D
C693        C862   1.487       .  S
C694        C697   1.372       .  D
C694        C896   1.491       .  S
C695       C1304   1.541   1_455  S
C695        C698   1.378       .  D
C695        C880   1.489       .  S
C696        C788   1.478       .  S
C697        C770   1.477       .  S
C698       C1306   1.537       .  S
C698        C752   1.487       .  S
Zn699       O703   1.965       .  S
Zn699       O704   2.013       .  S
Zn699       O708   2.036       .  S
Zn699       O715   2.026       .  S
Zn700       O703   1.984       .  S
Zn700       O705   2.069       .  S
Zn700       O707   2.052       .  S
Zn700       O711   2.041       .  S
Zn701       O703   1.939       .  S
Zn701       O706   1.982       .  S
Zn701       O709   1.977       .  S
Zn701       O712   1.991       .  S
Zn702       O703   1.961       .  S
Zn702       O710   2.021       .  S
Zn702       O713   2.000       .  S
Zn702       O714   2.011       .  S
O704        C716   1.274       .  A
O705        C717   1.279       .  A
O706        C718   1.268       .  A
O707        C716   1.279       .  A
O708        C718   1.275       .  A
O709        C717   1.268       .  A
O710        C719   1.272       .  A
O711        C720   1.278       .  A
O712        C719   1.268       .  A
O713        C720   1.272       .  A
O714        C721   1.271       .  A
O715        C721   1.274       .  A
C716       C1114   1.481       .  S
C717       C1078   1.476       .  S
C718       C1094   1.470       .  S
C719        C772   1.471       .  S
C720        C754   1.474       .  S
C721        C790   1.474       .  S
Zn722      O1956   1.967   1_455  S
Zn722       O727   2.034       .  S
Zn722       O731   2.026   1_554  S
Zn723       O726   1.950       .  S
Zn723       O728   2.008       .  S
Zn723      O1960   1.993       .  S
Zn724       O726   1.954   1_556  S
Zn724      O1959   2.001       .  S
Zn724       O732   2.014   1_556  S
Zn725       O733   2.028   1_554  S
Zn725       O736   2.027       .  S
Zn725      O1967   2.026   1_554  S
O726      Zn1952   1.968       .  S
O727        C739   1.276       .  A
O728        C740   1.272       .  A
O729      Zn1954   2.007   1_456  S
O729        C741   1.272       .  A
O730      Zn1953   1.988   1_455  S
O730        C739   1.269       .  A
O731        C741   1.275       .  A
O732        C740   1.271       .  A
O733        C742   1.273       .  A
O734        C743   1.271       .  A
O735        C742   1.273       .  A
O736        C743   1.275       .  A
O737      Zn1955   2.025   1_456  S
O737        C744   1.275       .  A
O738        C744   1.274   1_545  A
C739        C826   1.471       .  S
C740        C844   1.475       .  S
C741        C934   1.474       .  S
C742        C916   1.478       .  S
C743        C806   1.471       .  S
C744        C952   1.480       .  S
C745        C753   1.488       .  S
C745        C746   1.409       .  A
C745        C750   1.402       .  A
C746        C747   1.398       .  A
C746        H755   1.081       .  S
C747        C748   1.407       .  A
C747        H756   1.080       .  S
C748        C751   1.487       .  S
C748        C749   1.405       .  A
C749        C750   1.398       .  A
C749        H757   1.083       .  S
C750        H758   1.083       .  S
C751        C752   1.347       .  D
C751        H759   1.085       .  S
C752        H760   1.082       .  S
C753        C754   1.344       .  D
C753        H761   1.087       .  S
C754        H762   1.084       .  S
C763        C771   1.484       .  S
C763        C764   1.401       .  A
C763        C768   1.409       .  A
C764        C765   1.397       .  A
C764        H773   1.083       .  S
C765        C766   1.410       .  A
C765        H774   1.081       .  S
C766        C769   1.483       .  S
C766        C767   1.400       .  A
C767        C768   1.395       .  A
C767        H775   1.084       .  S
C768        H776   1.081       .  S
C769        C770   1.340       .  D
C769        H777   1.087       .  S
C770        H778   1.084       .  S
C771        C772   1.343       .  D
C771        H779   1.087       .  S
C772        H780   1.085       .  S
C781        C789   1.476       .  S
C781        C782   1.401       .  A
C781        C786   1.405       .  A
C782        C783   1.398       .  A
C782        H791   1.083       .  S
C783        C784   1.405       .  A
C783        H792   1.083       .  S
C784        C787   1.476       .  S
C784        C785   1.402       .  A
C785        C786   1.399       .  A
C785        H793   1.083       .  S
C786        H794   1.083       .  S
C787        C788   1.341       .  D
C787        H795   1.086       .  S
C788        H796   1.087       .  S
C789        C790   1.342       .  D
C789        H797   1.087       .  S
C790        H798   1.087       .  S
C799        C807   1.483       .  S
C799        C800   1.403       .  A
C799        C804   1.407       .  A
C800        C801   1.398       .  A
C800        H809   1.083       .  S
C801        C802   1.403       .  A
C801        H810   1.083       .  S
C802        C805   1.485       .  S
C802        C803   1.407       .  A
C803        C804   1.394       .  A
C803        H811   1.081       .  S
C804        H812   1.081       .  S
C805        C806   1.344       .  D
C805        H813   1.087       .  S
C806        H814   1.085       .  S
C807        C808   1.344       .  D
C807        H815   1.087       .  S
C808        H816   1.083       .  S
C817        C825   1.483       .  S
C817        C818   1.400       .  A
C817        C822   1.409       .  A
C818        C819   1.396       .  A
C818        H827   1.083       .  S
C819        C820   1.409       .  A
C819        H828   1.082       .  S
C820        C823   1.481       .  S
C820        C821   1.400       .  A
C821        C822   1.397       .  A
C821        H829   1.084       .  S
C822        H830   1.082       .  S
C823        C824   1.340       .  D
C823        H831   1.087       .  S
C824        H832   1.085       .  S
C825        C826   1.342       .  D
C825        H833   1.087       .  S
C826        H834   1.086       .  S
C835        C843   1.490       .  S
C835        C836   1.405       .  A
C835        C840   1.409       .  A
C836        C837   1.398       .  A
C836        H845   1.083       .  S
C837        C838   1.406       .  A
C837        H846   1.082       .  S
C838        C841   1.483       .  S
C838        C839   1.401       .  A
C839        C840   1.396       .  A
C839        H847   1.084       .  S
C840        H848   1.079       .  S
C841        C842   1.344       .  D
C841        H849   1.086       .  S
C842        H850   1.084       .  S
C843        C844   1.348       .  D
C843        H851   1.087       .  S
C844        H852   1.082       .  S
C853        C861   1.487       .  S
C853        C854   1.403       .  A
C853        C858   1.408       .  A
C854        C855   1.399       .  A
C854        H863   1.083       .  S
C855        C856   1.409       .  A
C855        H864   1.080       .  S
C856        C859   1.487       .  S
C856        C857   1.403       .  A
C857        C858   1.396       .  A
C857        H865   1.084       .  S
C858        H866   1.081       .  S
C859        C860   1.346       .  D
C859        H867   1.087       .  S
C860        H868   1.083       .  S
C861        C862   1.346       .  D
C861        H869   1.085       .  S
C862        H870   1.083       .  S
C871        C879   1.489       .  S
C871        C872   1.403       .  A
C871        C876   1.408       .  A
C872        C873   1.399       .  A
C872        H881   1.083       .  S
C873        C874   1.408       .  A
C873        H882   1.081       .  S
C874        C877   1.491       .  S
C874        C875   1.404       .  A
C875        C876   1.401       .  A
C875        H883   1.083       .  S
C876        H884   1.082       .  S
C877        C878   1.347       .  D
C877        H885   1.085       .  S
C878        H886   1.084       .  S
C879        C880   1.346       .  D
C879        H887   1.086       .  S
C880        H888   1.085       .  S
C889        C897   1.494       .  S
C889        C890   1.406       .  A
C889        C894   1.409       .  A
C890        C891   1.401       .  A
C890        H899   1.083       .  S
C891        C892   1.407       .  A
C891        H900   1.080       .  S
C892        C895   1.489       .  S
C892        C893   1.403       .  A
C893        C894   1.397       .  A
C893        H901   1.084       .  S
C894        H902   1.079       .  S
C895        C896   1.348       .  D
C895        H903   1.086       .  S
C896        H904   1.083       .  S
C897        C898   1.349       .  D
C897        H905   1.086       .  S
C898        H906   1.081       .  S
C907        C915   1.486       .  S
C907        C908   1.404       .  A
C907        C912   1.407       .  A
C908        C909   1.398       .  A
C908        H917   1.083       .  S
C909        C910   1.407       .  A
C909        H918   1.081       .  S
C910        C913   1.487       .  S
C910        C911   1.404       .  A
C911        C912   1.399       .  A
C911        H919   1.083       .  S
C912        H920   1.081       .  S
C913        C914   1.345       .  D
C913        H921   1.087       .  S
C914        H922   1.084       .  S
C915        C916   1.348       .  D
C915        H923   1.087       .  S
C916        H924   1.085       .  S
C925        C933   1.484       .  S
C925        C926   1.403       .  A
C925        C930   1.407       .  A
C926        C927   1.400       .  A
C926        H935   1.083       .  S
C927        C928   1.408       .  A
C927        H936   1.082       .  S
C928        C931   1.484       .  S
C928        C929   1.402       .  A
C929        C930   1.396       .  A
C929        H937   1.084       .  S
C930        H938   1.082       .  S
C931        C932   1.343       .  D
C931        H939   1.087       .  S
C932        H940   1.085       .  S
C933        C934   1.345       .  D
C933        H941   1.087       .  S
C934        H942   1.086       .  S
C943        C951   1.489       .  S
C943        C944   1.404       .  A
C943        C948   1.408       .  A
C944        C945   1.398       .  A
C944        H953   1.083       .  S
C945        C946   1.407       .  A
C945        H954   1.081       .  S
C946        C949   1.488       .  S
C946        C947   1.404       .  A
C947        C948   1.400       .  A
C947        H955   1.083       .  S
C948        H956   1.081       .  S
C949        C950   1.345       .  D
C949        H957   1.087       .  S
C950        H958   1.084       .  S
C951        C952   1.347       .  D
C951        H959   1.087       .  S
C952        H960   1.084       .  S
C961        C969   1.491       .  S
C961        C962   1.404       .  A
C961        C966   1.410       .  A
C962        C963   1.396       .  A
C962        H971   1.084       .  S
C963        C964   1.407       .  A
C963        H972   1.080       .  S
C964        C967   1.491       .  S
C964        C965   1.405       .  A
C965        C966   1.402       .  A
C965        H973   1.083       .  S
C966        H974   1.080       .  S
C967        C968   1.347       .  D
C967        H975   1.087       .  S
C968        H976   1.083       .  S
C969        C970   1.347       .  D
C969        H977   1.086       .  S
C970        H978   1.083       .  S
C979        C987   1.484       .  S
C979        C980   1.404       .  A
C979        C984   1.405       .  A
C980        C981   1.399       .  A
C980        H989   1.084       .  S
C981        C982   1.406       .  A
C981        H990   1.082       .  S
C982        C985   1.488       .  S
C982        C983   1.406       .  A
C983        C984   1.401       .  A
C983        H991   1.084       .  S
C984        H992   1.082       .  S
C985        C986   1.350       .  D
C985        H993   1.085       .  S
C986        H994   1.084       .  S
C987        C988   1.349       .  D
C987        H995   1.084       .  S
C988        H996   1.085       .  S
C997       C1005   1.492       .  S
C997        C998   1.404       .  A
C997       C1002   1.408       .  A
C998        C999   1.397       .  A
C998       H1007   1.084       .  S
C999       C1000   1.408       .  A
C999       H1008   1.079       .  S
C1000      C1003   1.494       .  S
C1000      C1001   1.407       .  A
C1001      C1002   1.403       .  A
C1001      H1009   1.084       .  S
C1002      H1010   1.080       .  S
C1003      C1004   1.349       .  D
C1003      H1011   1.086       .  S
C1004      H1012   1.081       .  S
C1005      C1006   1.349       .  D
C1005      H1013   1.086       .  S
C1006      H1014   1.082       .  S
C1015      C1023   1.485       .  S
C1015      C1016   1.402       .  A
C1015      C1020   1.408       .  A
C1016      C1017   1.399       .  A
C1016      H1025   1.083       .  S
C1017      C1018   1.409       .  A
C1017      H1026   1.081       .  S
C1018      C1021   1.485       .  S
C1018      C1019   1.402       .  A
C1019      C1020   1.395       .  A
C1019      H1027   1.084       .  S
C1020      H1028   1.082       .  S
C1021      C1022   1.345       .  D
C1021      H1029   1.087       .  S
C1022      H1030   1.085       .  S
C1023      C1024   1.343       .  D
C1023      H1031   1.086       .  S
C1024      H1032   1.085       .  S
C1033      C1041   1.482       .  S
C1033      C1034   1.403       .  A
C1033      C1038   1.407       .  A
C1034      C1035   1.397       .  A
C1034      H1043   1.083       .  S
C1035      C1036   1.406       .  A
C1035      H1044   1.082       .  S
C1036      C1039   1.482       .  S
C1036      C1037   1.403       .  A
C1037      C1038   1.396       .  A
C1037      H1045   1.083       .  S
C1038      H1046   1.082       .  S
C1039      C1040   1.346       .  D
C1039      H1047   1.087       .  S
C1040      H1048   1.085       .  S
C1041      C1042   1.343       .  D
C1041      H2279   1.087       .  S
C1042      H1050   1.084       .  S
H1049      C2271   1.087       .  S
C1051      C1059   1.486       .  S
C1051      C1052   1.402       .  A
C1051      C1056   1.408       .  A
C1052      C1053   1.399       .  A
C1052      H1061   1.083       .  S
C1053      C1054   1.408       .  A
C1053      H1062   1.082       .  S
C1054      C1057   1.486       .  S
C1054      C1055   1.403       .  A
C1055      C1056   1.399       .  A
C1055      H1063   1.083       .  S
C1056      H1064   1.082       .  S
C1057      C1058   1.346       .  D
C1057      H1065   1.085       .  S
C1058      H1066   1.080       .  S
C1059      C1060   1.345       .  D
C1059      H1067   1.087       .  S
C1060      H1068   1.086       .  S
C1069      C1077   1.490       .  S
C1069      C1070   1.402       .  A
C1069      C1074   1.409       .  A
C1070      C1071   1.402       .  A
C1070      H1079   1.083       .  S
C1071      C1072   1.410       .  A
C1071      H1080   1.081       .  S
C1072      C1075   1.489       .  S
C1072      C1073   1.402       .  A
C1073      C1074   1.397       .  A
C1073      H1081   1.083       .  S
C1074      H1082   1.082       .  S
C1075      C1076   1.345       .  D
C1075      H1083   1.086       .  S
C1076      H1084   1.084       .  S
C1077      C1078   1.343       .  D
C1077      H1085   1.086       .  S
C1078      H1086   1.086       .  S
C1087      C1095   1.480       .  S
C1087      C1088   1.401       .  A
C1087      C1092   1.408       .  A
C1088      C1089   1.395       .  A
C1088      H1097   1.084       .  S
C1089      C2320   1.408       .  A
C1089      H2328   1.082       .  S
C1090      C1093   1.482       .  S
C1090      C2319   1.407       .  A
C1090      C2321   1.401       .  A
C1091      C2320   1.401       .  A
C1091      C1092   1.397       .  A
C1091      H2329   1.083   1_455  S
C1092      H1100   1.082       .  S
C1093      C1094   1.342       .  D
C1093      H1101   1.087       .  S
C1094      H1102   1.087       .  S
C1095      C1096   1.342       .  D
C1095      H1103   1.086       .  S
C1096      H1104   1.085       .  S
H1098      C2319   1.083       .  S
H1099      C2321   1.083       .  S
C1105      C1113   1.492       .  S
C1106      C1107   1.400       .  A
C1107      C1108   1.407       .  A
C1107      H1116   1.082       .  S
C1108      C1111   1.485       .  S
C1108      C1109   1.401       .  A
C1109      C1110   1.398       .  A
C1109      H1117   1.083       .  S
C1111      C1112   1.343       .  D
C1111      H1119   1.087       .  S
C1112      H1120   1.085       .  S
C1113      C1114   1.347       .  D
C1113      H1121   1.087       .  S
C1114      H1122   1.085       .  S
C1123      C1131   1.487       .  S
C1123      C1124   1.405       .  A
C1123      C1128   1.408       .  A
C1124      C1125   1.397       .  A
C1124      H1133   1.084       .  S
C1125      C1126   1.400       .  A
C1125      H1134   1.083       .  S
C1126      C1129   1.484       .  S
C1126      C1127   1.408       .  A
C1127      C1128   1.396       .  A
C1127      H1135   1.082       .  S
C1128      H1136   1.079       .  S
C1129      C1130   1.342       .  D
C1129      H1137   1.087       .  S
C1130      H1138   1.085       .  S
C1131      C1132   1.345       .  D
C1131      H1139   1.084       .  S
C1132      H1140   1.082       .  S
C1141      C1149   1.483       .  S
C1141      C2372   1.400   1_455  A
C1141      C1146   1.410       .  A
C1142      C2371   1.400       .  A
C1142      C1143   1.395       .  A
C1142      H1151   1.083       .  S
C1143      C1144   1.409       .  A
C1143      H1152   1.082       .  S
C1144      C1147   1.481       .  S
C1144      C1145   1.400       .  A
C1145      C2376   1.397       .  A
C1145      H1153   1.083       .  S
C1146      C2375   1.398   1_455  A
C1146      H1154   1.081       .  S
C1147      C1148   1.340       .  D
C1147      H1155   1.087       .  S
C1148      H1156   1.084       .  S
C1149      C1150   1.342       .  D
C1149      H1157   1.087       .  S
C1150      H1158   1.085       .  S
C1159      C1167   1.478   1_545  S
C1159      C1164   1.399       .  A
C1160      C1161   1.394       .  A
C1160      H1169   1.083       .  S
C1161      C1162   1.407       .  A
C1161      H1170   1.080       .  S
C1162      C1165   1.479       .  S
C1162      C1163   1.405       .  A
C1163      H1171   1.084       .  S
C1164      H1172   1.083       .  S
C1165      C1166   1.345       .  D
C1165      H1173   1.082       .  S
C1166      H1174   1.082       .  S
C1167      C1168   1.340       .  D
C1167      H1175   1.087       .  S
C1168      H1176   1.086       .  S
C1177      C1185   1.487       .  S
C1177      C1178   1.403       .  A
C1177      C1182   1.408       .  A
C1178      C1179   1.396       .  A
C1178      H1187   1.084       .  S
C1179      C1180   1.408       .  A
C1179      H1188   1.079       .  S
C1180      C1183   1.488       .  S
C1180      C1181   1.404       .  A
C1181      C1182   1.397       .  A
C1181      H1189   1.084       .  S
C1182      H1190   1.079       .  S
C1183      C1184   1.345       .  D
C1183      H1191   1.087       .  S
C1184      H1192   1.081       .  S
C1185      C1186   1.345       .  D
C1185      H1193   1.086       .  S
C1186      H1194   1.082       .  S
C1195      C1203   1.492       .  S
C1195      C1200   1.408       .  A
C1196      C1197   1.400       .  A
C1196      H1205   1.083       .  S
C1197      C1198   1.408       .  A
C1197      H1206   1.081       .  S
C1198      C1201   1.490       .  S
C1198      C1199   1.404       .  A
C1199      H1207   1.083       .  S
C1200      H1208   1.081       .  S
C1201      C1202   1.348       .  D
C1201      H1209   1.086       .  S
C1202      H1210   1.084       .  S
C1203      C1204   1.349       .  D
C1203      H1211   1.086       .  S
C1204      H1212   1.084       .  S
C1213      C1221   1.488       .  S
C1213      C1214   1.403       .  A
C1213      C1218   1.408       .  A
C1214      C2445   1.398   1_455  A
C1214      H1223   1.083       .  S
C1215      C2444   1.398       .  A
C1215      C1216   1.408       .  A
C1215      H1224   1.081       .  S
C1216      C1219   1.487       .  S
C1216      C1217   1.403       .  A
C1217      C2448   1.398       .  A
C1217      H1225   1.083       .  S
C1218      C2447   1.400   1_455  A
C1218      H1226   1.081       .  S
C1219      C1220   1.345       .  D
C1219      H1227   1.085       .  S
C1220      H1228   1.084       .  S
C1221      C1222   1.346       .  D
C1221      H1229   1.087       .  S
C1222      H1230   1.084       .  S
C1231      H1232   1.108       .  S
C1231      C1237   1.534       .  S
C1231      C1236   1.533       .  S
C1231      C1235   1.527       .  S
C1233      H1234   1.112       .  S
C1233      C1239   1.544       .  S
C1233      C1238   1.538       .  S
C1233      C1240   1.539       .  S
C1235      C1238   1.374       .  D
C1235      C1763   1.471       .  S
C1236      C1239   1.377       .  D
C1236      C1781   1.485       .  S
C1237      C1240   1.378       .  D
C1237      C1747   1.489       .  S
C1238      C1835   1.488       .  S
C1239      C1817   1.490       .  S
C1240      C1801   1.485       .  S
C1241      H1242   1.112       .  S
C1241      C1247   1.536       .  S
C1241      C1246   1.534       .  S
C1241      C1245   1.535       .  S
C1243      H1244   1.106       .  S
C1243      C1249   1.539       .  S
C1243      C1248   1.541       .  S
C1243      C1250   1.538       .  S
C1245      C1248   1.378       .  D
C1245      C1799   1.486       .  S
C1246      C1249   1.375       .  D
C1246      C1837   1.488       .  S
C1247      C1250   1.376       .  D
C1247      C1819   1.489       .  S
C1248      C1691   1.490       .  S
C1249      C1711   1.481       .  S
C1250      C1727   1.489       .  S
Zn1251     O1255   1.961       .  S
Zn1251     O1256   2.037       .  S
Zn1251     O1260   2.002       .  S
Zn1251     O1267   2.016       .  S
Zn1252     O1255   1.944       .  S
Zn1252     O1257   1.995       .  S
Zn1252     O1259   1.999       .  S
Zn1252     O1263   1.985       .  S
Zn1253     O1255   1.969       .  S
Zn1253     O1258   2.016       .  S
Zn1253     O1261   2.030       .  S
Zn1253     O1264   2.031       .  S
Zn1254     O1255   1.961       .  S
Zn1254     O1262   2.021       .  S
Zn1254     O1265   2.022       .  S
Zn1254     O1266   2.018       .  S
O1256      C1268   1.274       .  A
O1257      C1269   1.270       .  A
O1258      C1270   1.273       .  A
O1259      C1268   1.270       .  A
O1260      C1270   1.274       .  A
O1261      C1269   1.275       .  A
O1262      C1271   1.273       .  A
O1263      C1272   1.269       .  A
O1264      C1271   1.276       .  A
O1265      C1272   1.275       .  A
O1266      C1273   1.275       .  A
O1267      C1273   1.272       .  A
C1268      C1745   1.476       .  S
C1269      C1765   1.472       .  S
C1270      C1655   1.473       .  S
C1271      C1675   1.481       .  S
C1272      C1783   1.468       .  S
C1273      C1637   1.477       .  S
C1274      H1275   1.109       .  S
C1274      C1280   1.535       .  S
C1274      C1894   1.540   1_545  S
C1276      H1277   1.112       .  S
C1276      C1897   1.536   1_545  S
C1276      C1283   1.539       .  S
C1278      C1281   1.378       .  D
C1278      C1639   1.477       .  S
C1279      C1889   1.537       .  S
C1279      C1282   1.375       .  D
C1279      C1673   1.490       .  S
C1280      C1283   1.375       .  D
C1280      C1657   1.476       .  S
C1281      C1619   1.493       .  S
C1282      C1891   1.539       .  S
C1282      C1583   1.484       .  S
C1283      C1601   1.496       .  S
C1284      H1285   1.111       .  S
C1284      C1290   1.544       .  S
C1284      C1289   1.543       .  S
C1284      C1288   1.539       .  S
C1286      H1287   1.109       .  S
C1286      C1292   1.536       .  S
C1286      C1291   1.536       .  S
C1286      C1293   1.533       .  S
C1288      C1291   1.376       .  D
C1288      C1585   1.490       .  S
C1289      C1292   1.377       .  D
C1289      C1603   1.495       .  S
C1290      C1293   1.376       .  D
C1290      C1621   1.494       .  S
C1291      C1565   1.485       .  S
C1292      C1547   1.483       .  S
C1293      C1529   1.483       .  S
C1294      H1295   1.109       .  S
C1294      C1300   1.538       .  S
C1294      C1299   1.531       .  S
C1294      C1298   1.527       .  S
C1296      H1297   1.112       .  S
C1296      C1302   1.539       .  S
C1296      C1301   1.543       .  S
C1296      C1303   1.534       .  S
C1298      C1301   1.379       .  D
C1298      C1439   1.474       .  S
C1299      C1302   1.375       .  D
C1299      C1457   1.486       .  S
C1300      C1303   1.376       .  D
C1300      C1423   1.482       .  S
C1301      C1493   1.492       .  S
C1302      C1475   1.486       .  S
C1303      C1513   1.486       .  S
C1304      H1305   1.112       .  S
C1304      C1309   1.530       .  S
C1304      C1923   1.539       .  S
C1306      H1307   1.109   1_455  S
C1306      C1312   1.538   1_455  S
C1306      C1926   1.532   1_455  S
C1308      C1919   1.536   1_655  S
C1308      C1311   1.377       .  D
C1308      C1477   1.486       .  S
C1309      C1312   1.374       .  D
C1309      C1511   1.487       .  S
C1310      C1313   1.381       .  D
C1310      C1495   1.490       .  S
C1311      C1921   1.537   1_655  S
C1311      C1403   1.485       .  S
C1312      C1385   1.479       .  S
C1313      C1367   1.491       .  S
Zn1314     O1318   1.966       .  S
Zn1314     O1319   2.015       .  S
Zn1314     O1323   2.039       .  S
Zn1314     O1330   2.030       .  S
Zn1315     O1318   1.981       .  S
Zn1315     O1320   2.052       .  S
Zn1315     O1322   2.044       .  S
Zn1315     O1326   2.046       .  S
Zn1316     O1318   1.940       .  S
Zn1316     O1321   1.986       .  S
Zn1316     O1324   1.974       .  S
Zn1316     O1327   1.998       .  S
Zn1317     O1318   1.953       .  S
Zn1317     O1325   2.017       .  S
Zn1317     O1328   2.004       .  S
Zn1317     O1329   2.002       .  S
O1319      C1331   1.274       .  A
O1320      C1332   1.277       .  A
O1321      C1333   1.269       .  A
O1322      C1331   1.278       .  A
O1323      C1333   1.275       .  A
O1324      C1332   1.268       .  A
O1325      C1334   1.272       .  A
O1326      C1335   1.278       .  A
O1327      C1334   1.269       .  A
O1328      C1335   1.272       .  A
O1329      C1336   1.271       .  A
O1330      C1336   1.275       .  A
C1331      C1729   1.479       .  S
C1332      C1693   1.470       .  S
C1333      C1709   1.471       .  S
C1334      C1387   1.472       .  S
C1335      C1369   1.478       .  S
C1336      C1405   1.475       .  S
Zn1337     O1342   2.029       .  S
Zn1337     O1346   2.031   1_554  S
Zn1337     O1968   2.027   1_554  S
Zn1338     O1341   1.956   1_655  S
Zn1338     O1343   2.019       .  S
Zn1338     O1964   2.002   1_545  S
Zn1339     O1341   1.955   1_655  S
Zn1339     O1347   2.017       .  S
Zn1339     O1965   2.010   1_544  S
Zn1340     O1956   1.964       .  S
Zn1340     O1348   2.023   1_554  S
Zn1340     O1351   2.025       .  S
O1341     Zn1955   1.964   1_445  S
O1342      C1354   1.275       .  A
O1343      C1355   1.273       .  A
O1344      C1356   1.271       .  A
O1345      C1354   1.270       .  A
O1346      C1356   1.275       .  A
O1347      C1355   1.272       .  A
O1348      C1357   1.273       .  A
O1349     Zn1953   1.997       .  S
O1349      C1358   1.270       .  A
O1350     Zn1954   2.009   1_556  S
O1350      C1357   1.274       .  A
O1351      C1358   1.275       .  A
O1352      C1359   1.275       .  A
O1353     Zn1952   2.029   1_556  S
O1353      C1359   1.275       .  A
C1354      C1441   1.474       .  S
C1355      C1459   1.478       .  S
C1356      C1549   1.473       .  S
C1357      C1531   1.477       .  S
C1358      C1421   1.471       .  S
C1359      C1567   1.480       .  S
C1360      C1368   1.493       .  S
C1360      C1361   1.411       .  A
C1360      C1365   1.403       .  A
C1361      C1362   1.400       .  A
C1361      H1370   1.080       .  S
C1362      C1363   1.406       .  A
C1362      H1371   1.082       .  S
C1363      C1366   1.487       .  S
C1363      C1364   1.404       .  A
C1364      C1365   1.399       .  A
C1364      H1372   1.083       .  S
C1365      H1373   1.083       .  S
C1366      C1367   1.348       .  D
C1366      H1374   1.085       .  S
C1367      H1375   1.083       .  S
C1368      C1369   1.346       .  D
C1368      H1376   1.087       .  S
C1369      H1377   1.084       .  S
C1378      C1386   1.484       .  S
C1378      C1379   1.402       .  A
C1378      C1383   1.409       .  A
C1379      C1380   1.396       .  A
C1379      H1388   1.084       .  S
C1380      C1381   1.408       .  A
C1380      H1389   1.082       .  S
C1381      C1384   1.482       .  S
C1381      C1382   1.401       .  A
C1382      C1383   1.397       .  A
C1382      H1390   1.084       .  S
C1383      H1391   1.081       .  S
C1384      C1385   1.341       .  D
C1384      H1392   1.087       .  S
C1385      H1393   1.084       .  S
C1386      C1387   1.344       .  D
C1386      H1394   1.087       .  S
C1387      H1395   1.084       .  S
C1396      C1404   1.492       .  S
C1396      C1397   1.411       .  A
C1396      C1401   1.405       .  A
C1397      C1398   1.397       .  A
C1397      H1406   1.079       .  S
C1398      C1399   1.406       .  A
C1398      H1407   1.082       .  S
C1399      C1402   1.485       .  S
C1399      C1400   1.403       .  A
C1400      C1401   1.399       .  A
C1400      H1408   1.083       .  S
C1401      H1409   1.083       .  S
C1402      C1403   1.345       .  D
C1402      H1410   1.084   1_655  S
C1403      H1411   1.083       .  S
C1404      C1405   1.346       .  D
C1404      H1412   1.087       .  S
C1405      H1413   1.082       .  S
C1414      C1422   1.485       .  S
C1414      C1415   1.404       .  A
C1414      C1419   1.408       .  A
C1415      C1416   1.397       .  A
C1415      H1424   1.083       .  S
C1416      C1417   1.401       .  A
C1416      H1425   1.083       .  S
C1417      C1420   1.483       .  S
C1417      C1418   1.407       .  A
C1418      C1419   1.396       .  A
C1418      H1426   1.082       .  S
C1419      H1427   1.080       .  S
C1420      C1421   1.344       .  D
C1420      H1428   1.087       .  S
C1421      H1429   1.085       .  S
C1422      C1423   1.344       .  D
C1422      H1430   1.086       .  S
C1423      H1431   1.082       .  S
C1432      C1440   1.483       .  S
C1432      C1433   1.400       .  A
C1432      C1437   1.409       .  A
C1433      C1434   1.395       .  A
C1433      H1442   1.083       .  S
C1434      C1435   1.408       .  A
C1434      H1443   1.082       .  S
C1435      C1438   1.483       .  S
C1435      C1436   1.402       .  A
C1436      C1437   1.399       .  A
C1436      H1444   1.083       .  S
C1437      H1445   1.082       .  S
C1438      C1439   1.342       .  D
C1438      H1446   1.087       .  S
C1439      H1447   1.085       .  S
C1440      C1441   1.343       .  D
C1440      H1448   1.087       .  S
C1441      H1449   1.086       .  S
C1450      C1458   1.491       .  S
C1450      C1451   1.404       .  A
C1450      C1455   1.408       .  A
C1451      C1452   1.400       .  A
C1451      H1460   1.083       .  S
C1452      C1453   1.409       .  A
C1452      H1461   1.080       .  S
C1453      C1456   1.489       .  S
C1453      C1454   1.403       .  A
C1454      C1455   1.398       .  A
C1454      H1462   1.084       .  S
C1455      H1463   1.080       .  S
C1456      C1457   1.344       .  D
C1456      H1464   1.087       .  S
C1457      H1465   1.083       .  S
C1458      C1459   1.348       .  D
C1458      H1466   1.087       .  S
C1459      H1467   1.084       .  S
C1468      C1476   1.486       .  S
C1468      C1469   1.403       .  A
C1468      C1473   1.408       .  A
C1469      C1470   1.399       .  A
C1469      H1478   1.083       .  S
C1470      C1471   1.408       .  A
C1470      H1479   1.081       .  S
C1471      C1474   1.485       .  S
C1471      C1472   1.402       .  A
C1472      C1473   1.396       .  A
C1472      H1480   1.084       .  S
C1473      H1481   1.081       .  S
C1474      C1475   1.345       .  D
C1474      H1482   1.087       .  S
C1475      H1483   1.084       .  S
C1476      C1477   1.345       .  D
C1476      H1484   1.086       .  S
C1477      H1485   1.084       .  S
C1486      C1494   1.493       .  S
C1486      C1487   1.404       .  A
C1486      C1491   1.409       .  A
C1487      C1488   1.401       .  A
C1487      H1496   1.083       .  S
C1488      C1489   1.409       .  A
C1488      H1497   1.080       .  S
C1489      C1492   1.494       .  S
C1489      C1490   1.404       .  A
C1490      C1491   1.400       .  A
C1490      H1498   1.083       .  S
C1491      H1499   1.080       .  S
C1492      C1493   1.348       .  D
C1492      H1500   1.085       .  S
C1493      H1501   1.083       .  S
C1494      C1495   1.348       .  D
C1494      H1502   1.086       .  S
C1495      H1503   1.083       .  S
C1504      C1512   1.489       .  S
C1504      C1505   1.404       .  A
C1504      C1509   1.408       .  A
C1505      C1506   1.399       .  A
C1505      H1514   1.083       .  S
C1506      C1507   1.409       .  A
C1506      H1515   1.079       .  S
C1507      C1510   1.488       .  S
C1507      C1508   1.403       .  A
C1508      C1509   1.396       .  A
C1508      H1516   1.084       .  S
C1509      H1517   1.080       .  S
C1510      C1511   1.346       .  D
C1510      H1518   1.087       .  S
C1511      H1519   1.082       .  S
C1512      C1513   1.347       .  D
C1512      H1520   1.086       .  S
C1513      H1521   1.083       .  S
C1522      C1530   1.485       .  S
C1522      C1523   1.404       .  A
C1522      C1527   1.407       .  A
C1523      C1524   1.397       .  A
C1523      H1532   1.083       .  S
C1524      C1525   1.406       .  A
C1524      H1533   1.082       .  S
C1525      C1528   1.483       .  S
C1525      C1526   1.403       .  A
C1526      C1527   1.398       .  A
C1526      H1534   1.083       .  S
C1527      H1535   1.081       .  S
C1528      C1529   1.344       .  D
C1528      H1536   1.087       .  S
C1529      H1537   1.084       .  S
C1530      C1531   1.347       .  D
C1530      H1538   1.087       .  S
C1531      H1539   1.085       .  S
C1540      C1548   1.485       .  S
C1540      C1541   1.403       .  A
C1540      C1545   1.407       .  A
C1541      C1542   1.400       .  A
C1541      H1550   1.083       .  S
C1542      C1543   1.407       .  A
C1542      H1551   1.082       .  S
C1543      C1546   1.482       .  S
C1543      C1544   1.401       .  A
C1544      C1545   1.396       .  A
C1544      H1552   1.084       .  S
C1545      H1553   1.082       .  S
C1546      C1547   1.342       .  D
C1546      H1554   1.087       .  S
C1547      H1555   1.085       .  S
C1548      C1549   1.344       .  D
C1548      H1556   1.087       .  S
C1549      H1557   1.086       .  S
C1558      C1566   1.490       .  S
C1558      C1559   1.405       .  A
C1558      C1563   1.409       .  A
C1559      C1560   1.399       .  A
C1559      H1568   1.083       .  S
C1560      C1561   1.406       .  A
C1560      H1569   1.082       .  S
C1561      C1564   1.486       .  S
C1561      C1562   1.403       .  A
C1562      C1563   1.400       .  A
C1562      H1570   1.083       .  S
C1563      H1571   1.081       .  S
C1564      C1565   1.345       .  D
C1564      H1572   1.087       .  S
C1565      H1573   1.085       .  S
C1566      C1567   1.348       .  D
C1566      H1574   1.087       .  S
C1567      H1575   1.084       .  S
C1576      C1584   1.492       .  S
C1576      C1577   1.405       .  A
C1576      C1581   1.409       .  A
C1577      C1578   1.398       .  A
C1577      H1586   1.084       .  S
C1578      C1579   1.407       .  A
C1578      H1587   1.080       .  S
C1579      C1582   1.491       .  S
C1579      C1580   1.405       .  A
C1580      C1581   1.401       .  A
C1580      H1588   1.084       .  S
C1581      H1589   1.080       .  S
C1582      C1583   1.346       .  D
C1582      H1590   1.086       .  S
C1583      H1591   1.082       .  S
C1584      C1585   1.348       .  D
C1584      H1592   1.086       .  S
C1585      H1593   1.082       .  S
C1594      C1602   1.487       .  S
C1594      C1595   1.405       .  A
C1594      C1599   1.405       .  A
C1595      C1596   1.401       .  A
C1595      H1604   1.084       .  S
C1596      C1597   1.406       .  A
C1596      H1605   1.082       .  S
C1597      C1600   1.487       .  S
C1597      C1598   1.406       .  A
C1598      C1599   1.401       .  A
C1598      H1606   1.084       .  S
C1599      H1607   1.082       .  S
C1600      C1601   1.350       .  D
C1600      H1608   1.084       .  S
C1601      H1609   1.085       .  S
C1602      C1603   1.351       .  D
C1602      H1610   1.084       .  S
C1603      H1611   1.085       .  S
C1612      C1620   1.492       .  S
C1612      C1613   1.404       .  A
C1612      C1617   1.408       .  A
C1613      C1614   1.399       .  A
C1613      H1622   1.084       .  S
C1614      C1615   1.408       .  A
C1614      H1623   1.080       .  S
C1615      C1618   1.495       .  S
C1615      C1616   1.407       .  A
C1616      C1617   1.404       .  A
C1616      H1624   1.083       .  S
C1617      H1625   1.081       .  S
C1618      C1619   1.350       .  D
C1618      H1626   1.085       .  S
C1619      H1627   1.083       .  S
C1620      C1621   1.350       .  D
C1620      H1628   1.087       .  S
C1621      H1629   1.084       .  S
C1630      C1638   1.483       .  S
C1630      C1631   1.401       .  A
C1630      C1635   1.406       .  A
C1631      C1632   1.400       .  A
C1631      H1640   1.083       .  S
C1632      C1633   1.411       .  A
C1632      H1641   1.079       .  S
C1633      C1636   1.489       .  S
C1633      C1634   1.403       .  A
C1634      C1635   1.395       .  A
C1634      H1642   1.084       .  S
C1635      H1643   1.082       .  S
C1636      C1637   1.346       .  D
C1636      H1644   1.087       .  S
C1637      H1645   1.083       .  S
C1638      C1639   1.342       .  D
C1638      H1646   1.087       .  S
C1639      H1647   1.085       .  S
C1648      C1656   1.478       .  S
C1648      C1649   1.403       .  A
C1648      C1653   1.405       .  A
C1649      C1650   1.398       .  A
C1649      H1658   1.083       .  S
C1650      C1651   1.407       .  A
C1650      H1659   1.082       .  S
C1651      C1654   1.479       .  S
C1651      C1652   1.401       .  A
C1652      C1653   1.393       .  A
C1652      H1660   1.084       .  S
C1653      H1661   1.082       .  S
C1654      C1655   1.344       .  D
C1654      H1662   1.087       .  S
C1655      H1663   1.085       .  S
C1656      C1657   1.342       .  D
C1657      H1665   1.085       .  S
C1666      C1674   1.489       .  S
C1666      C1667   1.403       .  A
C1666      C1671   1.410       .  A
C1667      C1668   1.397       .  A
C1667      H1676   1.083       .  S
C1668      C1669   1.406       .  A
C1668      H1677   1.083       .  S
C1669      C1672   1.486       .  S
C1669      C1670   1.403       .  A
C1670      C1671   1.402       .  A
C1670      H1678   1.083       .  S
C1671      H1679   1.081       .  S
C1672      C1673   1.345       .  D
C1672      H1680   1.086       .  S
C1673      H1681   1.081       .  S
C1674      C1675   1.346       .  D
C1674      H1682   1.087       .  S
C1675      H1683   1.085       .  S
C1684      C1692   1.484       .  S
C1684      C1685   1.401       .  A
C1684      C1689   1.407       .  A
C1685      C1686   1.401       .  A
C1685      H1694   1.083       .  S
C1686      C1687   1.411       .  A
C1686      H1695   1.081       .  S
C1687      C1690   1.487       .  S
C1687      C1688   1.401       .  A
C1688      C1689   1.394       .  A
C1688      H1696   1.084       .  S
C1689      H1697   1.083       .  S
C1690      C1691   1.343       .  D
C1690      H1698   1.085       .  S
C1691      H1699   1.082       .  S
C1692      C1693   1.342       .  D
C1692      H1700   1.086       .  S
C1693      H1701   1.087       .  S
C1702      C1710   1.480       .  S
C1702      C1703   1.401       .  A
C1702      C1707   1.409       .  A
C1703      C1704   1.393       .  A
C1703      H1712   1.084       .  S
C1705      C1708   1.484       .  S
C1706      C1707   1.398       .  A
C1707      H1715   1.081       .  S
C1708      C1709   1.343       .  D
C1708      H1716   1.087       .  S
C1709      H1717   1.086       .  S
C1710      C1711   1.341       .  D
C1710      H1718   1.086       .  S
C1711      H1719   1.084       .  S
C1720      C1728   1.491   1_565  S
C1720      C2336   1.404       .  A
C1720      C2340   1.409       .  A
C1721      C2335   1.404       .  A
C1721      C1722   1.401       .  A
C1721      H2345   1.083       .  S
C1722      C1723   1.408       .  A
C1722      H1731   1.082       .  S
C1723      C1726   1.490       .  S
C1723      C1724   1.403       .  A
C1724      C1725   1.401       .  A
C1724      H1732   1.083       .  S
C1725      C2335   1.409       .  A
C1725      H2348   1.081       .  S
C1726      C1727   1.345       .  D
C1726      H1734   1.087       .  S
C1727      H1735   1.084       .  S
C1728      C1729   1.346       .  D
C1728      H1736   1.087       .  S
C1729      H1737   1.085       .  S
H1730      C2336   1.083   1_545  S
H1733      C2340   1.081       .  S
C1738      C1746   1.489       .  S
C1738      C1739   1.405       .  A
C1738      C1743   1.407       .  A
C1739      C1740   1.399       .  A
C1739      H1748   1.083       .  S
C1740      C1741   1.403       .  A
C1740      H1749   1.083       .  S
C1741      C1744   1.491       .  S
C1741      C1742   1.410       .  A
C1742      C1743   1.398       .  A
C1742      H1750   1.081       .  S
C1743      H1751   1.080       .  S
C1744      C1745   1.345       .  D
C1744      H1752   1.087       .  S
C1745      H1753   1.084       .  S
C1746      C1747   1.348       .  D
C1746      H1754   1.084       .  S
C1747      H1755   1.082       .  S
C1756      C1764   1.482       .  S
C1756      C1761   1.408       .  A
C1757      C1758   1.395       .  A
C1757      H1766   1.083       .  S
C1758      C1759   1.408       .  A
C1758      H1767   1.082       .  S
C1759      C1762   1.479       .  S
C1759      C1760   1.399       .  A
C1760      H1768   1.083       .  S
C1761      H1769   1.082       .  S
C1762      C1763   1.339       .  D
C1762      H1770   1.087       .  S
C1763      H1771   1.085       .  S
C1764      C1765   1.342       .  D
C1764      H1772   1.087       .  S
C1765      H1773   1.086       .  S
C1774      C1782   1.478       .  S
C1774      C2390   1.407       .  A
C1774      C1779   1.399       .  A
C1775      C2389   1.406       .  A
C1775      C1776   1.396       .  A
C1775      H1784   1.083   1_545  S
C1776      C1777   1.407       .  A
C1776      H1785   1.080       .  S
C1777      C1780   1.481       .  S
C1777      C1778   1.404       .  A
C1778      C2394   1.393       .  A
C1778      H1786   1.084       .  S
C1779      C2393   1.394       .  A
C1779      H1787   1.083       .  S
C1780      C1781   1.345       .  D
C1780      H1788   1.083       .  S
C1781      H1789   1.082       .  S
C1782      C1783   1.341       .  D
C1782      H1790   1.087       .  S
C1783      H1791   1.086       .  S
C1792      C1800   1.487       .  S
C1792      C1793   1.403       .  A
C1792      C1797   1.409       .  A
C1793      C1794   1.397       .  A
C1793      H1802   1.084       .  S
C1794      C1795   1.408       .  A
C1794      H1803   1.081       .  S
C1795      C1798   1.486       .  S
C1795      C1796   1.403       .  A
C1796      C1797   1.398       .  A
C1796      H1804   1.084       .  S
C1797      H1805   1.080       .  S
C1798      C1799   1.346       .  D
C1798      H1806   1.087       .  S
C1799      H1807   1.084       .  S
C1800      C1801   1.345       .  D
C1800      H1808   1.086       .  S
C1801      H1809   1.083       .  S
C1810      C1818   1.491       .  S
C1810      C2426   1.405       .  A
C1810      C1815   1.408       .  A
C1811      C2425   1.404       .  A
C1811      C1812   1.401   1_565  A
C1811      H1820   1.083       .  S
C1812      C1813   1.408       .  A
C1812      H1821   1.081       .  S
C1813      C1816   1.491       .  S
C1813      C1814   1.405       .  A
C1814      C2430   1.400   1_545  A
C1814      H1822   1.083       .  S
C1815      C2429   1.398       .  A
C1815      H1823   1.080       .  S
C1816      C1817   1.348       .  D
C1816      H1824   1.087       .  S
C1817      H1825   1.084       .  S
C1818      C1819   1.348       .  D
C1818      H1826   1.086       .  S
C1819      H1827   1.083       .  S
C1828      C1836   1.488       .  S
C1828      C1829   1.403       .  A
C1828      C1833   1.408       .  A
C1829      H1838   1.083       .  S
C1830      C1831   1.408       .  A
C1830      H1839   1.081       .  S
C1831      C1834   1.490       .  S
C1831      C1832   1.404       .  A
C1832      H1840   1.083       .  S
C1833      H1841   1.081       .  S
C1834      C1835   1.347       .  D
C1834      H1842   1.085       .  S
C1835      H1843   1.084       .  S
C1836      C1837   1.347       .  D
C1836      H1844   1.087       .  S
C1837      H1845   1.084       .  S
C1846      H1847   1.108       .  S
C1846      C1852   1.534       .  S
C1846      C1851   1.532       .  S
C1846      C1850   1.526       .  S
C1848      H1849   1.112       .  S
C1848      C1854   1.546       .  S
C1848      C1853   1.539       .  S
C1848      C1855   1.539       .  S
C1850      C1853   1.374       .  D
C1850      C2378   1.474       .  S
C1851      C1854   1.378       .  D
C1851      C2396   1.488       .  S
C1852      C1855   1.376       .  D
C1852      C2362   1.483       .  S
C1853      C2450   1.486       .  S
C1854      C2432   1.490       .  S
C1855      C2416   1.489       .  S
C1856      H1857   1.112       .  S
C1856      C1862   1.538       .  S
C1856      C1861   1.534       .  S
C1856      C1860   1.536       .  S
C1858      H1859   1.106       .  S
C1858      C1864   1.540       .  S
C1858      C1863   1.541       .  S
C1858      C1865   1.539       .  S
C1860      C1863   1.377       .  D
C1860      C2414   1.488       .  S
C1861      C1864   1.376       .  D
C1861      C2452   1.486       .  S
C1862      C1865   1.376       .  D
C1862      C2434   1.490       .  S
C1863      C2306   1.490       .  S
C1864      C2326   1.484       .  S
C1865      C2342   1.489       .  S
Zn1866     O1870   1.959       .  S
Zn1866     O1871   2.033       .  S
Zn1866     O1875   2.000       .  S
Zn1866     O1882   2.014       .  S
Zn1867     O1870   1.940       .  S
Zn1867     O1872   1.986       .  S
Zn1867     O1874   1.987       .  S
Zn1867     O1878   1.979       .  S
Zn1868     O1870   1.967       .  S
Zn1868     O1873   2.018       .  S
Zn1868     O1876   2.029       .  S
Zn1868     O1879   2.033       .  S
Zn1869     O1870   1.957       .  S
Zn1869     O1877   2.020       .  S
Zn1869     O1880   2.021       .  S
Zn1869     O1881   2.018       .  S
O1871      C1883   1.274       .  A
O1872      C1884   1.268       .  A
O1873      C1885   1.274       .  A
O1874      C1883   1.268       .  A
O1875      C1885   1.274       .  A
O1876      C1884   1.275       .  A
O1877      C1886   1.273       .  A
O1878      C1887   1.268       .  A
O1879      C1886   1.276       .  A
O1880      C1887   1.274       .  A
O1881      C1888   1.275       .  A
O1882      C1888   1.272       .  A
C1883      C2360   1.471       .  S
C1884      C2380   1.470       .  S
C1885      C2270   1.472       .  S
C1886      C2290   1.480       .  S
C1887      C2398   1.465       .  S
C1888      C2252   1.476       .  S
C1889      H1890   1.110       .  S
C1889      C1895   1.533       .  S
C1891      H1892   1.112       .  S
C1891      C1898   1.543       .  S
C1893      C1896   1.377       .  D
C1893      C2254   1.478       .  S
C1894      C1897   1.375       .  D
C1894      C2288   1.492       .  S
C1895      C1898   1.376       .  D
C1895      C2272   1.478       .  S
C1896      C2234   1.488       .  S
C1897      C2198   1.482       .  S
C1898      C2216   1.498       .  S
C1899      H1900   1.112       .  S
C1899      C1905   1.543       .  S
C1899      C1904   1.542       .  S
C1899      C1903   1.539       .  S
C1901      H1902   1.109       .  S
C1901      C1907   1.537       .  S
C1901      C1906   1.537       .  S
C1901      C1908   1.533       .  S
C1903      C1906   1.377       .  D
C1903      C2200   1.489       .  S
C1904      C1907   1.376       .  D
C1904      C2218   1.497       .  S
C1905      C1908   1.376       .  D
C1905      C2236   1.493       .  S
C1906      C2180   1.487       .  S
C1907      C2162   1.481       .  S
C1908      C2144   1.482       .  S
C1909      H1910   1.110       .  S
C1909      C1915   1.537       .  S
C1909      C1914   1.531       .  S
C1909      C1913   1.526       .  S
C1911      H1912   1.112       .  S
C1911      C1917   1.539       .  S
C1911      C1916   1.545       .  S
C1911      C1918   1.535       .  S
C1913      C1916   1.378       .  D
C1913      C2054   1.477       .  S
C1914      C1917   1.375       .  D
C1914      C2072   1.484       .  S
C1915      C1918   1.376       .  D
C1915      C2038   1.479       .  S
C1916      C2108   1.489       .  S
C1917      C2090   1.486       .  S
C1918      C2128   1.489       .  S
C1919      H1920   1.112       .  S
C1919      C1924   1.529   1_445  S
C1921      H1922   1.107   1_545  S
C1921      C1927   1.539   1_445  S
C1923      C1926   1.375       .  D
C1923      C2092   1.486       .  S
C1924      C1927   1.372       .  D
C1924      C2126   1.488       .  S
C1925      C1928   1.378       .  D
C1925      C2110   1.490       .  S
C1926      C2018   1.480       .  S
C1927      C2000   1.479       .  S
C1928      C1982   1.487       .  S
Zn1929     O1933   1.964       .  S
Zn1929     O1934   2.013       .  S
Zn1929     O1938   2.035       .  S
Zn1929     O1945   2.029       .  S
Zn1930     O1933   1.984       .  S
Zn1930     O1935   2.064       .  S
Zn1930     O1937   2.053       .  S
Zn1930     O1941   2.039       .  S
Zn1931     O1933   1.940       .  S
Zn1931     O1936   1.979       .  S
Zn1931     O1939   1.975       .  S
Zn1931     O1942   1.990       .  S
Zn1932     O1933   1.960       .  S
Zn1932     O1940   2.027       .  S
Zn1932     O1943   2.001       .  S
Zn1932     O1944   2.013       .  S
O1934      C1946   1.273       .  A
O1935      C1947   1.278       .  A
O1936      C1948   1.268       .  A
O1937      C1946   1.279       .  A
O1938      C1948   1.275       .  A
O1939      C1947   1.268       .  A
O1940      C1949   1.273       .  A
O1941      C1950   1.278       .  A
O1942      C1949   1.267       .  A
O1943      C1950   1.273       .  A
O1944      C1951   1.272       .  A
O1945      C1951   1.275       .  A
C1946      C2344   1.481       .  S
C1947      C2308   1.474       .  S
C1948      C2324   1.469       .  S
C1949      C2002   1.472       .  S
C1950      C1984   1.474       .  S
C1951      C2020   1.474       .  S
Zn1952     O1957   2.039       .  S
Zn1952     O1961   2.026   1_554  S
Zn1953     O1956   1.951       .  S
Zn1953     O1958   2.010       .  S
Zn1954     O1956   1.955       .  S
Zn1954     O1962   2.016       .  S
Zn1955     O1963   2.021   1_554  S
Zn1955     O1966   2.018       .  S
O1957      C1969   1.276       .  A
O1958      C1970   1.272       .  A
O1959      C1971   1.271       .  A
O1960      C1969   1.270       .  A
O1961      C1971   1.275       .  A
O1962      C1970   1.271       .  A
O1963      C1972   1.273       .  A
O1964      C1973   1.271       .  A
O1965      C1972   1.274       .  A
O1966      C1973   1.274       .  A
O1967      C1974   1.276       .  A
O1968      C1974   1.274   1_545  A
C1969      C2056   1.474       .  S
C1970      C2074   1.476       .  S
C1971      C2164   1.473       .  S
C1972      C2146   1.476       .  S
C1973      C2036   1.470       .  S
C1974      C2182   1.481       .  S
C1975      C1983   1.487       .  S
C1975      C1976   1.409       .  A
C1975      C1980   1.402       .  A
C1976      C1977   1.397       .  A
C1976      H1985   1.081       .  S
C1977      C1978   1.407       .  A
C1977      H1986   1.080       .  S
C1978      C1981   1.487       .  S
C1978      C1979   1.405       .  A
C1979      C1980   1.398       .  A
C1979      H1987   1.084       .  S
C1980      H1988   1.083       .  S
C1981      C1982   1.347       .  D
C1981      H1989   1.084       .  S
C1982      H1990   1.082       .  S
C1983      C1984   1.344       .  D
C1983      H1991   1.087       .  S
C1984      H1992   1.085       .  S
C1993      C2001   1.485       .  S
C1993      C1994   1.401       .  A
C1993      C1998   1.409       .  A
C1994      C1995   1.397       .  A
C1994      H2003   1.083       .  S
C1995      C1996   1.409       .  A
C1995      H2004   1.081       .  S
C1996      C1999   1.484       .  S
C1996      C1997   1.401       .  A
C1997      C1998   1.397       .  A
C1997      H2005   1.084       .  S
C1998      H2006   1.081       .  S
C1999      C2000   1.341       .  D
C1999      H2007   1.087       .  S
C2000      H2008   1.084       .  S
C2001      C2002   1.343       .  D
C2001      H2009   1.087       .  S
C2002      H2010   1.085       .  S
C2011      C2019   1.478       .  S
C2011      C2012   1.402       .  A
C2011      C2016   1.405       .  A
C2012      C2013   1.400       .  A
C2012      H2021   1.083       .  S
C2013      C2014   1.406       .  A
C2013      H2022   1.083       .  S
C2014      C2017   1.478       .  S
C2014      C2015   1.402       .  A
C2015      C2016   1.399       .  A
C2015      H2023   1.083       .  S
C2016      H2024   1.083       .  S
C2017      C2018   1.341       .  D
C2017      H2025   1.087   1_655  S
C2018      H2026   1.087       .  S
C2019      C2020   1.342       .  D
C2019      H2027   1.087       .  S
C2020      H2028   1.087       .  S
C2029      C2037   1.486       .  S
C2029      C2030   1.405       .  A
C2029      C2034   1.409       .  A
C2030      C2031   1.397       .  A
C2030      H2039   1.083       .  S
C2031      C2032   1.401       .  A
C2031      H2040   1.083       .  S
C2032      C2035   1.481       .  S
C2032      C2033   1.405       .  A
C2033      C2034   1.395       .  A
C2033      H2041   1.082       .  S
C2034      H2042   1.079       .  S
C2035      C2036   1.344       .  D
C2035      H2043   1.087       .  S
C2036      H2044   1.086       .  S
C2037      C2038   1.344       .  D
C2037      H2045   1.087       .  S
C2038      H2046   1.081       .  S
C2047      C2055   1.486       .  S
C2047      C2048   1.401       .  A
C2047      C2052   1.410       .  A
C2048      C2049   1.397       .  A
C2048      H2057   1.083       .  S
C2049      C2050   1.409       .  A
C2049      H2058   1.082       .  S
C2050      C2053   1.484       .  S
C2050      C2051   1.401       .  A
C2051      C2052   1.399       .  A
C2051      H2059   1.084       .  S
C2052      H2060   1.082       .  S
C2053      C2054   1.342       .  D
C2053      H2061   1.087       .  S
C2054      H2062   1.085       .  S
C2055      C2056   1.343       .  D
C2055      H2063   1.087       .  S
C2056      H2064   1.085       .  S
C2065      C2073   1.487       .  S
C2065      C2066   1.403       .  A
C2065      C2070   1.407       .  A
C2066      C2067   1.398       .  A
C2066      H2075   1.084       .  S
C2067      C2068   1.409       .  A
C2067      H2076   1.079       .  S
C2068      C2071   1.489       .  S
C2068      C2069   1.404       .  A
C2069      C2070   1.397       .  A
C2069      H2077   1.084       .  S
C2070      H2078   1.081       .  S
C2071      C2072   1.345       .  D
C2071      H2079   1.087       .  S
C2072      H2080   1.082       .  S
C2073      C2074   1.346       .  D
C2073      H2081   1.087       .  S
C2074      H2082   1.084       .  S
C2083      C2091   1.487       .  S
C2083      C2084   1.403       .  A
C2083      C2088   1.407       .  A
C2084      C2085   1.399       .  A
C2084      H2093   1.084       .  S
C2085      C2086   1.409       .  A
C2085      H2094   1.080       .  S
C2086      C2089   1.487       .  S
C2086      C2087   1.404       .  A
C2087      C2088   1.396       .  A
C2087      H2095   1.084       .  S
C2088      H2096   1.081       .  S
C2089      C2090   1.346       .  D
C2089      H2097   1.087       .  S
C2090      H2098   1.083       .  S
C2091      C2092   1.346       .  D
C2091      H2099   1.085       .  S
C2092      H2100   1.084       .  S
C2101      C2109   1.490       .  S
C2101      C2102   1.403       .  A
C2101      C2106   1.408       .  A
C2102      C2103   1.400       .  A
C2102      H2111   1.083       .  S
C2103      C2104   1.408       .  A
C2103      H2112   1.081       .  S
C2104      C2107   1.491       .  S
C2104      C2105   1.404       .  A
C2105      C2106   1.401       .  A
C2105      H2113   1.083       .  S
C2106      H2114   1.082       .  S
C2107      C2108   1.348       .  D
C2107      H2115   1.086       .  S
C2108      H2116   1.084       .  S
C2109      C2110   1.347       .  D
C2109      H2117   1.087       .  S
C2110      H2118   1.085       .  S
C2119      C2127   1.489       .  S
C2119      C2120   1.404       .  A
C2119      C2124   1.408       .  A
C2120      C2121   1.399       .  A
C2120      H2129   1.083       .  S
C2121      C2122   1.409       .  A
C2121      H2130   1.080       .  S
C2122      C2125   1.490       .  S
C2122      C2123   1.404       .  A
C2123      C2124   1.398       .  A
C2123      H2131   1.084       .  S
C2124      H2132   1.081       .  S
C2125      C2126   1.348       .  D
C2125      H2133   1.086       .  S
C2126      H2134   1.082       .  S
C2127      C2128   1.347       .  D
C2127      H2135   1.086       .  S
C2128      H2136   1.084       .  S
C2137      C2145   1.485       .  S
C2137      C2138   1.403       .  A
C2137      C2142   1.407       .  A
C2138      C2139   1.397       .  A
C2138      H2147   1.083       .  S
C2139      C2140   1.407       .  A
C2139      H2148   1.081       .  S
C2140      C2143   1.484       .  S
C2140      C2141   1.403       .  A
C2141      C2142   1.398       .  A
C2141      H2149   1.083       .  S
C2142      H2150   1.081       .  S
C2143      C2144   1.344       .  D
C2143      H2151   1.087       .  S
C2144      H2152   1.084       .  S
C2145      C2146   1.346       .  D
C2145      H2153   1.087       .  S
C2146      H2154   1.085       .  S
C2155      C2163   1.483       .  S
C2155      C2156   1.402       .  A
C2155      C2160   1.407       .  A
C2156      C2157   1.398       .  A
C2156      H2165   1.083       .  S
C2157      C2158   1.407       .  A
C2157      H2166   1.082       .  S
C2158      C2161   1.481       .  S
C2158      C2159   1.401       .  A
C2159      C2160   1.396       .  A
C2159      H2167   1.084       .  S
C2160      H2168   1.082       .  S
C2161      C2162   1.342       .  D
C2161      H2169   1.087       .  S
C2162      H2170   1.085       .  S
C2163      C2164   1.344       .  D
C2163      H2171   1.087       .  S
C2164      H2172   1.086       .  S
C2173      C2181   1.489       .  S
C2173      C2174   1.403       .  A
C2173      C2178   1.408       .  A
C2174      C2175   1.398       .  A
C2174      H2183   1.083       .  S
C2175      C2176   1.408       .  A
C2175      H2184   1.080       .  S
C2176      C2179   1.492       .  S
C2176      C2177   1.406       .  A
C2177      C2178   1.401       .  A
C2177      H2185   1.083       .  S
C2178      H2186   1.081       .  S
C2179      C2180   1.347       .  D
C2179      H2187   1.087       .  S
C2180      H2188   1.083       .  S
C2181      C2182   1.347       .  D
C2181      H2189   1.087       .  S
C2182      H2190   1.085       .  S
C2191      C2199   1.491       .  S
C2191      C2192   1.404       .  A
C2191      C2196   1.409       .  A
C2192      C2193   1.398       .  A
C2192      H2201   1.084       .  S
C2193      C2194   1.408       .  A
C2193      H2202   1.080       .  S
C2194      C2197   1.490       .  S
C2194      C2195   1.404       .  A
C2195      C2196   1.400       .  A
C2195      H2203   1.083       .  S
C2196      H2204   1.080       .  S
C2197      C2198   1.345       .  D
C2197      H2205   1.087       .  S
C2198      H2206   1.082       .  S
C2199      C2200   1.348       .  D
C2199      H2207   1.086       .  S
C2200      H2208   1.082       .  S
C2209      C2217   1.490       .  S
C2209      C2210   1.407       .  A
C2209      C2214   1.406       .  A
C2210      C2211   1.402       .  A
C2210      H2219   1.084       .  S
C2211      C2212   1.405       .  A
C2211      H2220   1.082       .  S
C2212      C2215   1.488       .  S
C2212      C2213   1.406       .  A
C2213      C2214   1.401       .  A
C2213      H2221   1.084       .  S
C2214      H2222   1.082       .  S
C2215      C2216   1.351       .  D
C2215      H2223   1.084       .  S
C2216      H2224   1.085       .  S
C2217      C2218   1.352       .  D
C2217      H2225   1.084       .  S
C2218      H2226   1.084       .  S
C2227      C2235   1.492       .  S
C2227      C2228   1.405       .  A
C2227      C2232   1.408       .  A
C2228      C2229   1.397       .  A
C2228      H2237   1.084       .  S
C2229      C2230   1.407       .  A
C2229      H2238   1.080       .  S
C2230      C2233   1.493       .  S
C2230      C2231   1.406       .  A
C2231      C2232   1.403       .  A
C2231      H2239   1.084       .  S
C2232      H2240   1.080       .  S
C2233      C2234   1.349       .  D
C2233      H2241   1.086       .  S
C2234      H2242   1.082       .  S
C2235      C2236   1.349       .  D
C2235      H2243   1.086       .  S
C2236      H2244   1.083       .  S
C2245      C2253   1.481       .  S
C2245      C2246   1.401       .  A
C2245      C2250   1.406       .  A
C2246      C2247   1.399       .  A
C2246      H2255   1.083       .  S
C2247      C2248   1.410       .  A
C2247      H2256   1.080       .  S
C2248      C2251   1.487       .  S
C2248      C2249   1.403       .  A
C2249      C2250   1.395       .  A
C2249      H2257   1.083       .  S
C2250      H2258   1.083       .  S
C2251      C2252   1.346       .  D
C2251      H2259   1.087       .  S
C2252      H2260   1.083       .  S
C2253      C2254   1.342       .  D
C2253      H2261   1.087       .  S
C2254      H2262   1.086       .  S
C2263      C2271   1.480       .  S
C2263      C2264   1.402       .  A
C2263      C2268   1.407       .  A
C2264      C2265   1.396       .  A
C2264      H2273   1.084       .  S
C2265      C2266   1.406       .  A
C2265      H2274   1.082       .  S
C2266      C2269   1.479       .  S
C2266      C2267   1.402       .  A
C2267      C2268   1.395       .  A
C2267      H2275   1.084       .  S
C2268      H2276   1.081       .  S
C2269      C2270   1.345       .  D
C2269      H2277   1.087       .  S
C2270      H2278   1.085       .  S
C2271      C2272   1.342       .  D
C2272      H2280   1.084       .  S
C2281      C2289   1.489       .  S
C2281      C2282   1.403       .  A
C2281      C2286   1.409       .  A
C2282      C2283   1.399       .  A
C2282      H2291   1.083       .  S
C2283      C2284   1.407       .  A
C2283      H2292   1.083       .  S
C2284      C2287   1.487       .  S
C2284      C2285   1.403       .  A
C2285      C2286   1.402       .  A
C2285      H2293   1.083       .  S
C2286      H2294   1.082       .  S
C2287      C2288   1.346       .  D
C2287      H2295   1.086       .  S
C2288      H2296   1.082       .  S
C2289      C2290   1.346       .  D
C2289      H2297   1.087       .  S
C2290      H2298   1.085       .  S
C2299      C2307   1.488       .  S
C2299      C2300   1.402       .  A
C2299      C2304   1.408       .  A
C2300      C2301   1.402       .  A
C2300      H2309   1.083       .  S
C2301      C2302   1.410       .  A
C2301      H2310   1.082       .  S
C2302      C2305   1.487       .  S
C2302      C2303   1.401       .  A
C2303      C2304   1.396       .  A
C2303      H2311   1.084       .  S
C2304      H2312   1.083       .  S
C2305      C2306   1.343       .  D
C2305      H2313   1.086       .  S
C2306      H2314   1.083       .  S
C2307      C2308   1.343       .  D
C2307      H2315   1.086       .  S
C2308      H2316   1.087       .  S
C2317      C2325   1.482       .  S
C2317      C2318   1.401       .  A
C2317      C2322   1.409       .  A
C2318      C2319   1.395       .  A
C2318      H2327   1.084       .  S
C2320      C2323   1.481   1_455  S
C2321      C2322   1.399       .  A
C2322      H2330   1.082       .  S
C2323      C2324   1.341       .  D
C2323      H2331   1.087       .  S
C2324      H2332   1.086       .  S
C2325      C2326   1.343       .  D
C2325      H2333   1.086       .  S
C2326      H2334   1.084       .  S
C2335      C2343   1.493       .  S
C2336      C2337   1.401       .  A
C2337      C2338   1.408       .  A
C2337      H2346   1.082       .  S
C2338      C2341   1.488       .  S
C2338      C2339   1.402       .  A
C2339      C2340   1.399       .  A
C2339      H2347   1.083       .  S
C2341      C2342   1.345       .  D
C2341      H2349   1.086       .  S
C2342      H2350   1.084       .  S
C2343      C2344   1.347       .  D
C2343      H2351   1.087       .  S
C2344      H2352   1.085       .  S
C2353      C2361   1.487       .  S
C2353      C2354   1.405       .  A
C2353      C2358   1.407       .  A
C2354      C2355   1.398       .  A
C2354      H2363   1.084       .  S
C2355      C2356   1.401       .  A
C2355      H2364   1.083       .  S
C2356      C2359   1.486       .  S
C2356      C2357   1.408       .  A
C2357      C2358   1.395       .  A
C2357      H2365   1.081       .  S
C2358      H2366   1.080       .  S
C2359      C2360   1.343       .  D
C2359      H2367   1.087       .  S
C2360      H2368   1.085       .  S
C2361      C2362   1.346       .  D
C2361      H2369   1.085       .  S
C2362      H2370   1.082       .  S
C2371      C2379   1.482       .  S
C2371      C2376   1.409       .  A
C2372      C2373   1.395       .  A
C2372      H2381   1.084       .  S
C2373      C2374   1.408       .  A
C2373      H2382   1.082       .  S
C2374      C2377   1.481       .  S
C2374      C2375   1.400       .  A
C2375      H2383   1.084       .  S
C2376      H2384   1.082       .  S
C2377      C2378   1.341       .  D
C2377      H2385   1.087       .  S
C2378      H2386   1.085       .  S
C2379      C2380   1.342       .  D
C2379      H2387   1.087       .  S
C2380      H2388   1.085       .  S
C2389      C2397   1.476   1_545  S
C2389      C2394   1.399       .  A
C2390      C2391   1.397       .  A
C2390      H2399   1.083       .  S
C2391      C2392   1.408       .  A
C2391      H2400   1.080       .  S
C2392      C2395   1.484       .  S
C2392      C2393   1.405       .  A
C2393      H2401   1.084       .  S
C2394      H2402   1.084       .  S
C2395      C2396   1.346       .  D
C2395      H2403   1.083       .  S
C2396      H2404   1.082       .  S
C2397      C2398   1.340       .  D
C2397      H2405   1.087       .  S
C2398      H2406   1.086       .  S
C2407      C2415   1.489       .  S
C2407      C2408   1.404       .  A
C2407      C2412   1.408       .  A
C2408      C2409   1.400       .  A
C2408      H2417   1.083       .  S
C2409      C2410   1.408       .  A
C2409      H2418   1.082       .  S
C2410      C2413   1.487       .  S
C2410      C2411   1.403       .  A
C2411      C2412   1.399       .  A
C2411      H2419   1.083       .  S
C2412      H2420   1.081       .  S
C2413      C2414   1.346       .  D
C2413      H2421   1.087       .  S
C2414      H2422   1.085       .  S
C2415      C2416   1.347       .  D
C2415      H2423   1.086       .  S
C2416      H2424   1.084       .  S
C2425      C2433   1.490       .  S
C2425      C2430   1.408       .  A
C2426      C2427   1.400       .  A
C2426      H2435   1.083       .  S
C2427      C2428   1.408       .  A
C2427      H2436   1.080       .  S
C2428      C2431   1.491       .  S
C2428      C2429   1.404       .  A
C2429      H2437   1.083       .  S
C2430      H2438   1.081       .  S
C2431      C2432   1.348       .  D
C2431      H2439   1.086       .  S
C2432      H2440   1.083       .  S
C2433      C2434   1.348       .  D
C2433      H2441   1.086       .  S
C2434      H2442   1.084       .  S
C2443      C2451   1.487       .  S
C2443      C2444   1.403       .  A
C2443      C2448   1.409       .  A
C2444      H2453   1.083       .  S
C2445      C2446   1.407       .  A
C2445      H2454   1.081       .  S
C2446      C2449   1.488       .  S
C2446      C2447   1.404       .  A
C2447      H2455   1.083       .  S
C2448      H2456   1.081       .  S
C2449      C2450   1.346       .  D
C2449      H2457   1.086       .  S
C2450      H2458   1.084       .  S
C2451      C2452   1.346       .  D
C2451      H2459   1.087       .  S
C2452      H2460   1.084       .  S
