geometry optimzed in LAMMPS
_audit_creation_date              2020-12-01 
_audit_creation_method            'lammps2cif' 
_symmetry_space_group_name_H-M    'P1' 
_symmetry_Int_Tables_number       1 
_symmetry_cell_setting            triclinic 
loop_ 
_symmetry_equiv_pos_as_xyz 
  x,y,z 
_cell_length_a                    34.74585106 
_cell_length_b                    30.833287531473363 
_cell_length_c                    35.673208656533006 
_cell_angle_alpha                 89.81639106478843 
_cell_angle_beta                  89.60337215809461 
_cell_angle_gamma                 90.03378856879777 
loop_ 
_atom_site_label 
_atom_site_type_symbol 
_atom_site_fract_x 
_atom_site_fract_y 
_atom_site_fract_z 
_atom_site_charge 
O1          O  0.00451150  0.03127737  0.40921848    -0.77500
C2          C  0.02895765  0.12331451  0.50059496     0.83500
O3          O  0.07932773  0.95930415  0.50847979    -0.78600
O4          O  0.99293189  0.03254492  0.59127425    -0.80100
O5          O  0.89969772  0.01176937  0.49827240    -0.79900
O6          O  0.94770894  0.99928377  0.41745843    -0.78500
Zn7        Zn  0.02665583  0.03506855  0.46164261     1.55700
O8          O  0.91810979  0.06129105  0.53986764    -0.79900
Cd9        Cd  0.94795984  0.98666647  0.47430090     1.59700
Cd10       Cd  0.02143828  0.95929667  0.52457320     1.59600
O11         O  0.94213885  0.92143080  0.48269123    -0.79900
O12         O  0.99414043  0.00918029  0.49978762    -1.90400
Cd13       Cd  0.97804562  0.05399498  0.53798934     1.59900
O14         O  0.99354488  0.89989557  0.51476254    -0.79900
O15         O  0.00596726  0.11300705  0.52726123    -0.78500
C16         C  0.09658875  0.98156805  0.48319933     0.84000
C17         C  0.97298953  0.01659709  0.39622835     0.83700
O18         O  0.03716320  0.09697828  0.47432265    -0.77500
C19         C  0.89192122  0.03962752  0.52339564     0.84500
O20         O  0.07888073  0.00841523  0.46245199    -0.77600
C21         C  0.96126342  0.89198331  0.49925106     0.84600
C22         C  0.00830325  0.99781417  0.60373669     0.84900
O23         O  0.02014373  0.96778756  0.58208915    -0.80000
O24         O  0.40516792  0.00131205  0.48529992    -0.77500
C25         C  0.50449216  0.00785383  0.40867658     0.83500
O26         O  0.48765249  0.90387894  0.54158417    -0.78600
O27         O  0.58663091  0.00731075  0.50354570    -0.80100
O28         O  0.49153076  0.11873437  0.52889763    -0.79900
O29         O  0.40596530  0.05806687  0.52387736    -0.78500
Zn30       Zn  0.45866333  0.97952053  0.47798697     1.55700
O31         O  0.54283874  0.09734771  0.49624690    -0.79900
Cd32       Cd  0.46415952  0.05859498  0.53839620     1.59700
Cd33       Cd  0.51109712  0.96529301  0.55082322     1.59600
O34         O  0.46575693  0.04912205  0.59584663    -0.79900
O35         O  0.49176864  0.00872621  0.51324877    -1.90400
Cd36       Cd  0.53604251  0.03308146  0.48525173     1.59900
O37         O  0.49537576  0.98549109  0.60402752    -0.79900
O38         O  0.53005348  0.02655395  0.42821864    -0.78500
C39         C  0.46505822  0.89080007  0.51594604     0.84000
C40         C  0.38780986  0.03064704  0.50389451     0.83700
O41         O  0.47596171  0.98812979  0.42372014    -0.77500
C42         C  0.52400502  0.12664659  0.51329040     0.84500
O43         O  0.45377611  0.91597231  0.48986345    -0.77600
C44         C  0.47868142  0.01918340  0.61699588     0.84600
C45         C  0.59603782  0.98193117  0.53013023     0.84900
O46         O  0.57109189  0.96214970  0.55024522    -0.80000
O47         O  0.17043549  0.49962735  0.46866467    -0.77500
C48         C  0.26108405  0.50043660  0.38150296     0.83500
O49         O  0.25519452  0.38520166  0.50128379    -0.78600
O50         O  0.35161543  0.49536849  0.46660122    -0.80100
O51         O  0.26647049  0.59812281  0.51746947    -0.79900
O52         O  0.18070575  0.54380398  0.51700436    -0.78500
Zn53       Zn  0.22029585  0.47292234  0.45386966     1.55700
O54         O  0.30825505  0.58715771  0.47079702    -0.79900
Cd55       Cd  0.23957858  0.53794801  0.52319209     1.59700
Cd56       Cd  0.28289013  0.44313184  0.51456304     1.59600
O57         O  0.24776954  0.51672201  0.57765089    -0.79900
O58         O  0.26009154  0.49388236  0.48685208    -1.90400
Cd59       Cd  0.29989317  0.52314290  0.45586444     1.59900
O60         O  0.27471174  0.45139236  0.57157673    -0.79900
O61         O  0.28863989  0.51797843  0.39928591    -0.78500
C62         C  0.22539156  0.37909786  0.48132680     0.84000
C63         C  0.15817641  0.52465915  0.49442737     0.83700
O64         O  0.23278513  0.48252002  0.39853083    -0.77500
C65         C  0.29360325  0.61130993  0.49603712     0.84500
O66         O  0.21046499  0.40961489  0.46226586    -0.77600
C67         C  0.26106209  0.48179758  0.59175538     0.84600
C68         C  0.36429854  0.46467091  0.48693606     0.84900
O69         O  0.34209702  0.43977819  0.50580331    -0.80000
O70         O  0.79334266  0.50746718  0.41159320    -0.77500
C71         C  0.79981317  0.61080975  0.49201554     0.83500
O72         O  0.84060375  0.44325678  0.52864460    -0.78600
O73         O  0.74559422  0.53996516  0.58263034    -0.80100
O74         O  0.67249237  0.49884299  0.47516717    -0.79900
O75         O  0.73656364  0.47458202  0.40908127    -0.78500
Zn76       Zn  0.80316465  0.51682745  0.46636121     1.55700
O77         O  0.68082334  0.55358059  0.51506939    -0.79900
Cd78       Cd  0.72383070  0.46978328  0.46584983     1.59700
Cd79       Cd  0.78145374  0.45244894  0.53558196     1.59600
O80         O  0.71330789  0.40667777  0.48135485    -0.79900
O81         O  0.76247604  0.49726016  0.49874332    -1.90400
Cd82       Cd  0.73988501  0.54893410  0.52555626     1.59900
O83         O  0.75104551  0.39408270  0.53053888    -0.79900
O84         O  0.77017802  0.60613815  0.51302908    -0.78500
C85         C  0.86344047  0.46240466  0.50585208     0.84000
C86         C  0.76586887  0.49126630  0.39292397     0.83700
O87         O  0.81357239  0.57952551  0.47324104    -0.77500
C88         C  0.65919523  0.52943156  0.49521836     0.84500
O89         O  0.85148572  0.48873157  0.48106876    -0.77600
C90         C  0.72466807  0.38233315  0.50796836     0.84600
C91         C  0.75861125  0.50974835  0.60339509     0.84900
O92         O  0.77275467  0.47483351  0.58995408    -0.80000
O93         O  0.91086954  0.99270049  0.01975213    -0.77500
C94         C  0.99778015  0.99511164  0.10655768     0.83500
O95         O  0.99632059  0.10824272  0.98569972    -0.78600
O96         O  0.09012402  0.99779652  0.02648650    -0.80100
O97         O  0.00789356  0.89658399  0.96879507    -0.79900
O98         O  0.92145529  0.95067466  0.96992060    -0.78500
Zn99       Zn  0.95977946  0.02149674  0.03324984     1.55700
O100        O  0.04576226  0.90635241  0.01822048    -0.79900
Cd101      Cd  0.98074988  0.95701338  0.96353104     1.59700
Cd102      Cd  0.02576029  0.05070131  0.97509970     1.59600
O103        O  0.99149423  0.97996897  0.90958888    -0.79900
O104        O  0.00037021  0.00009584  0.00105993    -1.90400
Cd105      Cd  0.03775447  0.96987253  0.03335252     1.59900
O106        O  0.02326640  0.04220275  0.91778145    -0.79900
O107        O  0.02449570  0.97488078  0.08948640    -0.78500
C108        C  0.96526606  0.11443148  0.00413317     0.84000
C109        C  0.89878794  0.96808315  0.99377884     0.83700
O110        O  0.97105561  0.01452451  0.08883599    -0.77500
C111        C  0.03320182  0.88282076  0.99172394     0.84500
O112        O  0.94935868  0.08416538  0.02295299    -0.75200
C113        C  0.00854196  0.01356444  0.89659145     0.84600
C114        C  0.10419626  0.03035761  0.00928838     0.84900
O115        O  0.08357979  0.05557143  0.98939813    -0.80000
O116        O  0.59191335  0.99604657  0.02244843    -0.77500
C117        C  0.51226963  0.98926383  0.11779589     0.83500
O118        O  0.49653215  0.88765533  0.99423656    -0.78600
O119        O  0.41324284  0.00561203  0.04250516    -0.80100
O120        O  0.49133460  0.10170569  0.98660483    -0.79900
O121        O  0.57928912  0.04824658  0.98075171    -0.78500
Zn122      Zn  0.54320075  0.96930992  0.03963593     1.55700
O123        O  0.46664522  0.09161636  0.04383097    -0.79900
Cd124      Cd  0.51955239  0.04240900  0.97688353     1.59700
Cd125      Cd  0.47284007  0.94938548  0.98615710     1.59600
O126        O  0.50736152  0.02378058  0.92229911    -0.79900
O127        O  0.50166605  0.99624318  0.01304408    -1.90400
Cd128      Cd  0.46855013  0.02532350  0.05068065     1.59900
O129        O  0.47568858  0.96116325  0.92926609    -0.79900
O130        O  0.48397798  0.01076579  0.10493994    -0.78500
C131        C  0.52845538  0.87821775  0.00964335     0.84000
C132        C  0.60296037  0.02517025  0.99940438     0.83700
O133        O  0.53737841  0.97235658  0.09617987    -0.77500
C134        C  0.47309471  0.11558865  0.01539699     0.84500
O135        O  0.54807950  0.90676516  0.02662897    -0.77600
C136        C  0.48993225  0.99101588  0.90868485     0.84600
C137        C  0.39674266  0.97699915  0.02261777     0.84900
O138        O  0.41526717  0.95129870  0.00118738    -0.80000
O139        O  0.26178562  0.46866348  0.07633718    -0.77500
C140        C  0.28564246  0.37801890  0.98252182     0.83500
O141        O  0.32910819  0.54747583  0.97594257    -0.78600
O142        O  0.24189731  0.46847314  0.89631132    -0.80100
O143        O  0.15238772  0.48830262  0.99253852    -0.79900
O144        O  0.20397496  0.49927446  0.07151734    -0.78500
Zn145      Zn  0.28192063  0.46567463  0.02279606     1.55700
O146        O  0.16997164  0.43749084  0.95146000    -0.79900
Cd147      Cd  0.20122091  0.51351189  0.01499498     1.59700
Cd148      Cd  0.27158957  0.54238552  0.96127122     1.59600
O149        O  0.19433706  0.57940782  0.00875739    -0.79900
O150        O  0.24675017  0.49143798  0.98726018    -1.90400
Cd151      Cd  0.22988043  0.44616722  0.95010977     1.59900
O152        O  0.24336552  0.60068200  0.97264041    -0.79900
O153        O  0.26035099  0.38812168  0.95815913    -0.78500
C154        C  0.34810168  0.52573675  0.99994383     0.84000
C155        C  0.23060632  0.48251647  0.09115004     0.83700
O156        O  0.29479236  0.40400717  0.00871493    -0.77500
C157        C  0.14412433  0.45966980  0.96829828     0.84500
O158        O  0.33249291  0.49603503  0.01971804    -0.77600
C159        C  0.21263210  0.60886687  0.99102038     0.84600
C160        C  0.25662228  0.50329134  0.88306813     0.84900
O161        O  0.26910083  0.53351181  0.90400451    -0.80000
O162        O  0.65809764  0.49931314  0.02949558    -0.77500
C163        C  0.76018261  0.50043717  0.10290329     0.83500
O164        O  0.73769303  0.59953591  0.97083641    -0.78600
O165        O  0.84000043  0.49476165  0.00291435    -0.80100
O166        O  0.74417331  0.38608358  0.98566070    -0.79900
O167        O  0.66012516  0.44544592  0.98807081    -0.78500
Zn168      Zn  0.71118326  0.52254140  0.03486912     1.55700
O169        O  0.79367560  0.40700869  0.02055578    -0.79900
Cd170      Cd  0.71813575  0.44567387  0.97352717     1.59700
Cd171      Cd  0.76337758  0.53936826  0.96090426     1.59600
O172        O  0.72096324  0.45396868  0.91589286    -0.79900
O173        O  0.74500252  0.49544117  0.99874744    -1.90400
Cd174      Cd  0.78991051  0.47267315  0.02619691     1.59900
O175        O  0.74818009  0.51900851  0.90781498    -0.79900
O176        O  0.78750591  0.48568147  0.08275773    -0.78500
C177        C  0.71440105  0.61108117  0.99677656     0.84000
C178        C  0.64147108  0.47049039  0.00997992     0.83700
O179        O  0.72912711  0.51466314  0.08848782    -0.77500
C180        C  0.77479108  0.37761213  0.00382353     0.84500
O181        O  0.70434950  0.58534667  0.02303641    -0.77600
C182        C  0.73312157  0.48451090  0.89475130     0.84600
C183        C  0.84886450  0.52111246  0.97674273     0.84900
O184        O  0.82350894  0.54308324  0.95928064    -0.80000
C185        C  0.53532841  0.50212175  0.02228753     0.19700
C186        C  0.51608100  0.54195128  0.01853580    -0.18400
C187        C  0.47585892  0.54353540  0.01817615    -0.10700
C188        C  0.45433482  0.50519124  0.02212749     0.21900
C189        C  0.47361894  0.46560724  0.02676852    -0.20000
C190        C  0.51369879  0.46396167  0.02667545    -0.10900
C191        C  0.41182019  0.50469442  0.02233388    -0.15000
C192        C  0.38982813  0.53332077  0.00363041    -0.28900
C193        C  0.57788804  0.50165015  0.02277311    -0.03200
C194        C  0.59921416  0.46748554  0.01161214    -0.39700
H195        H  0.53223679  0.57186706  0.01564568     0.13100
H196        H  0.46179876  0.57468557  0.01547747     0.12700
H197        H  0.45756298  0.43570640  0.03025803     0.12100
H198        H  0.52756039  0.43292467  0.03078910     0.12400
H199        H  0.39818658  0.47691301  0.03578280     0.15100
H200        H  0.40283886  0.55983534  0.98795689     0.13900
H201        H  0.59224526  0.53162635  0.03055964     0.11600
H202        H  0.58561599  0.43854712  0.00059996     0.13600
C203        C  0.03680418  0.48719471  0.95826216     0.19700
C204        C  0.01719622  0.52682246  0.95454900    -0.18400
C205        C  0.97711915  0.52868031  0.95750229    -0.10700
C206        C  0.95581508  0.49073085  0.96435009     0.21900
C207        C  0.97530579  0.45084567  0.96641659    -0.20000
C208        C  0.01539620  0.44897523  0.96332952    -0.10900
C209        C  0.91403371  0.49144529  0.97313690    -0.15000
C210        C  0.88979665  0.52452202  0.96565055    -0.28900
C211        C  0.07926129  0.48831653  0.96178536    -0.03200
C212        C  0.10308478  0.45388974  0.95908779    -0.39700
H213        H  0.03309222  0.55679650  0.95090759     0.13100
H214        H  0.96334845  0.56009218  0.95631721     0.12700
H215        H  0.95954430  0.42112845  0.97182423     0.12100
H216        H  0.02944957  0.41797098  0.96698943     0.12400
H217        H  0.90248348  0.46249275  0.98658479     0.15100
H218        H  0.89924360  0.55268422  0.94980780     0.13900
H219        H  0.09169044  0.51981233  0.96819176     0.11600
H220        H  0.09290245  0.42248758  0.94975727     0.13600
C221        C  0.36383688  0.28871318  0.99491045     0.19700
C222        C  0.39527061  0.28439975  0.01930251    -0.18400
C223        C  0.42063471  0.24928512  0.01639076    -0.10700
C224        C  0.41522665  0.21734886  0.98888216     0.21900
C225        C  0.38444316  0.22207000  0.96386492    -0.20000
C226        C  0.35888931  0.25713483  0.96687604    -0.10900
C227        C  0.44038071  0.17824191  0.98613501    -0.15000
C228        C  0.45698040  0.15992930  0.01630599    -0.28900
C229        C  0.33830945  0.32749640  0.99927255    -0.03200
C230        C  0.30626931  0.33593491  0.97915519    -0.39700
H231        H  0.40031628  0.30841446  0.04081694     0.13100
H232        H  0.44458893  0.24746829  0.03555695     0.12700
H233        H  0.37971002  0.19805700  0.94228222     0.12100
H234        H  0.33562480  0.25916697  0.94704517     0.12400
H235        H  0.44131047  0.16101187  0.95961017     0.15100
H236        H  0.45277962  0.17433513  0.04374652     0.13900
H237        H  0.34730478  0.35135220  0.01978822     0.11600
H238        H  0.29621026  0.31334835  0.95821812     0.13600
C239        C  0.60098912  0.78355268  0.01157644     0.19700
C240        C  0.64074426  0.78301704  0.00426913    -0.18400
C241        C  0.66123096  0.74407919  0.00404267    -0.10700
C242        C  0.64235938  0.70469885  0.01155735     0.21900
C243        C  0.60254791  0.70517761  0.01905905    -0.20000
C244        C  0.58190817  0.74420302  0.01880357    -0.10900
C245        C  0.66344095  0.66289358  0.01358700    -0.15000
C246        C  0.69695765  0.65475513  0.99554018    -0.28900
C247        C  0.58155879  0.82621985  0.01427248    -0.03200
C248        C  0.54400017  0.83355799  0.00730865    -0.39700
H249        H  0.65614878  0.81301956  0.99910732     0.13100
H250        H  0.69197401  0.74520902  0.99914435     0.12700
H251        H  0.58742343  0.67526699  0.02535241     0.12100
H252        H  0.55146263  0.74363932  0.02544041     0.12400
H253        H  0.64958476  0.63683084  0.02921439     0.15100
H254        H  0.70993494  0.67893893  0.97728864     0.13900
H255        H  0.59996913  0.85364697  0.02081365     0.11600
H256        H  0.52536380  0.80746001  0.99811634     0.13600
C257        C  0.71012984  0.99646694  0.99553752     0.19700
C258        C  0.72959533  0.95694292  0.99073233    -0.18400
C259        C  0.76967251  0.95514433  0.99237477    -0.10700
C260        C  0.79091568  0.99300638  0.99913838     0.21900
C261        C  0.77148541  0.03262590  0.00334261    -0.20000
C262        C  0.73144755  0.03447651  0.00141718    -0.10900
C263        C  0.83301568  0.99247974  0.00431652    -0.15000
C264        C  0.85694260  0.96233787  0.98998511    -0.28900
C265        C  0.66773672  0.99571029  0.99830012    -0.03200
C266        C  0.64463720  0.03032023  0.99340683    -0.39700
H267        H  0.71364768  0.92713590  0.98663285     0.13100
H268        H  0.78366018  0.92395041  0.98982016     0.12700
H269        H  0.78733556  0.06218314  0.00883993     0.12100
H270        H  0.71736987  0.06526866  0.00617291     0.12400
H271        H  0.84515450  0.02004609  0.01907110     0.15100
H272        H  0.84623256  0.93629188  0.97253579     0.13900
H273        H  0.65473123  0.96444492  0.00482511     0.11600
H274        H  0.65587708  0.06124034  0.98367852     0.13600
C275        C  0.21062656  0.01025251  0.03128457     0.19700
C276        C  0.23016773  0.97171926  0.03990107    -0.18400
C277        C  0.27015088  0.97092307  0.04134163    -0.10700
C278        C  0.29131693  0.00884946  0.03436491     0.21900
C279        C  0.27189682  0.04779903  0.02707302    -0.20000
C280        C  0.23177421  0.04854730  0.02528466    -0.10900
C281        C  0.33363724  0.00872708  0.03515306    -0.15000
C282        C  0.35463121  0.97458554  0.02366100    -0.28900
C283        C  0.16824967  0.00865860  0.02973177    -0.03200
C284        C  0.14595508  0.03783052  0.01195812    -0.39700
H285        H  0.21443452  0.94195075  0.04522334     0.13100
H286        H  0.28439188  0.94075724  0.04827285     0.12700
H287        H  0.28784517  0.07752534  0.02223176     0.12100
H288        H  0.21761929  0.07908441  0.01970034     0.12400
H289        H  0.34793797  0.03867577  0.04308354     0.15100
H290        H  0.34078112  0.94588659  0.01244395     0.13900
H291        H  0.15487885  0.98022138  0.04236430     0.11600
H292        H  0.15831286  0.06563172  0.99760126     0.13600
C293        C  0.84688848  0.28331385  0.01363306     0.19700
C294        C  0.88730176  0.28355800  0.01348565    -0.18400
C295        C  0.90808051  0.24484136  0.01285547    -0.10700
C296        C  0.88877977  0.20479406  0.01257383     0.21900
C297        C  0.84830231  0.20449299  0.01302091    -0.20000
C298        C  0.82746255  0.24334598  0.01338263    -0.10900
C299        C  0.90970058  0.16281312  0.01379826    -0.15000
C300        C  0.94668981  0.15749718  0.00297013    -0.28900
C301        C  0.82666248  0.32557225  0.01561538    -0.03200
C302        C  0.79022278  0.33288689  0.00435498    -0.39700
H303        H  0.90295740  0.31395869  0.01406387     0.13100
H304        H  0.93913839  0.24657834  0.01364196     0.12700
H305        H  0.83273141  0.17402703  0.01329745     0.12100
H306        H  0.79637109  0.24188618  0.01437986     0.12400
H307        H  0.89334745  0.13458603  0.02300412     0.15100
H308        H  0.96300939  0.18432288  0.99115036     0.13900
H309        H  0.84389268  0.35292802  0.02486789     0.11600
H310        H  0.77289254  0.30691859  0.99283828     0.13600
C311        C  0.10300849  0.78557745  0.99847428     0.19700
C312        C  0.14301957  0.78316292  0.00367663    -0.18400
C313        C  0.16207067  0.74319687  0.00307065    -0.10700
C314        C  0.14130944  0.70463316  0.99762334     0.21900
C315        C  0.10130171  0.70703392  0.99247800    -0.20000
C316        C  0.08230988  0.74704975  0.99265439    -0.10900
C317        C  0.15977565  0.66121105  0.99920091    -0.15000
C318        C  0.19709167  0.65354433  0.99089491    -0.28900
C319        C  0.08383970  0.82845970  0.00202831    -0.03200
C320        C  0.04943372  0.83875203  0.98705004    -0.39700
H321        H  0.15957232  0.81233580  0.00867383     0.13100
H322        H  0.19274365  0.74256895  0.00806573     0.12700
H323        H  0.08459596  0.67773388  0.98862448     0.12100
H324        H  0.05137170  0.74747373  0.98949290     0.12400
H325        H  0.14113104  0.63386891  0.00578120     0.15100
H326        H  0.21571586  0.67968379  0.98142776     0.13900
H327        H  0.09967088  0.85340311  0.01689297     0.11600
H328        H  0.03418862  0.81576465  0.96961983     0.13600
C329        C  0.75957147  0.49065127  0.71012242     0.19700
C330        C  0.74850670  0.45528645  0.73250928    -0.18400
C331        C  0.74336942  0.46011762  0.77118267    -0.10700
C332        C  0.74959129  0.50060145  0.78834971     0.21900
C333        C  0.76143330  0.53572456  0.76592022    -0.20000
C334        C  0.76639311  0.53090387  0.72726331    -0.10900
C335        C  0.74667121  0.50718263  0.82957265    -0.15000
C336        C  0.73073141  0.47864046  0.85376852    -0.28900
C337        C  0.76405323  0.48444937  0.66910007    -0.03200
C338        C  0.75679623  0.51626488  0.64430152    -0.39700
H339        H  0.74354474  0.42383476  0.71996568     0.13100
H340        H  0.73537287  0.43176002  0.78728480     0.12700
H341        H  0.76715788  0.56704997  0.77840878     0.12100
H342        H  0.77616725  0.55853927  0.71101978     0.12400
H343        H  0.75924190  0.53676816  0.84062404     0.15100
H344        H  0.71699980  0.44931328  0.84383208     0.13900
H345        H  0.77091243  0.45212761  0.65898425     0.11600
H346        H  0.74730432  0.54781698  0.65413450     0.13600
C347        C  0.73812477  0.50138399  0.20917373     0.19700
C348        C  0.70386045  0.49659672  0.22983551    -0.18400
C349        C  0.70468498  0.49000378  0.26860747    -0.10700
C350        C  0.73977773  0.48858516  0.28779461     0.21900
C351        C  0.77422746  0.49326122  0.26711401    -0.20000
C352        C  0.77339863  0.49994684  0.22833577    -0.10900
C353        C  0.73905141  0.48239948  0.32921244    -0.15000
C354        C  0.76843324  0.49341264  0.35164972    -0.28900
C355        C  0.73560948  0.50745715  0.16785034    -0.03200
C356        C  0.76488758  0.49938748  0.14398341    -0.39700
H357        H  0.67628833  0.49757812  0.21587285     0.13100
H358        H  0.67771954  0.48639828  0.28373045     0.12700
H359        H  0.80199350  0.49138763  0.28047225     0.12100
H360        H  0.80050893  0.50433927  0.21377426     0.12400
H361        H  0.71243115  0.47079531  0.34191260     0.15100
H362        H  0.79454616  0.50728182  0.33991776     0.13900
H363        H  0.70772235  0.51611988  0.15643476     0.11600
H364        H  0.79245180  0.48837753  0.15437893     0.13600
C365        C  0.24614896  0.49943736  0.69772572     0.19700
C366        C  0.24914256  0.53559630  0.72124688    -0.18400
C367        C  0.24831854  0.53057914  0.76019231    -0.10700
C368        C  0.24425427  0.48909749  0.77640036     0.21900
C369        C  0.23976661  0.45316777  0.75281486    -0.20000
C370        C  0.24079313  0.45817138  0.71388290    -0.10900
C371        C  0.24329016  0.48215337  0.81761301    -0.15000
C372        C  0.25903087  0.50989563  0.84216709    -0.28900
C373        C  0.24755625  0.50599478  0.65654023    -0.03200
C374        C  0.26035021  0.47541334  0.63272760    -0.39700
H375        H  0.25245012  0.56780763  0.70943825     0.13100
H376        H  0.25023919  0.55935951  0.77731376     0.12700
H377        H  0.23572698  0.42103036  0.76456402     0.12100
H378        H  0.23682220  0.42976597  0.69660418     0.12400
H379        H  0.22984724  0.45258662  0.82802291     0.15100
H380        H  0.27388058  0.53876485  0.83231964     0.13900
H381        H  0.23909919  0.53751294  0.64565570     0.11600
H382        H  0.27092984  0.44469711  0.64342198     0.13600
C383        C  0.24277086  0.47682585  0.27657999     0.19700
C384        C  0.21028511  0.46786459  0.25473110    -0.18400
C385        C  0.21320144  0.46563767  0.21560525    -0.10700
C386        C  0.24889546  0.47206062  0.19748593     0.21900
C387        C  0.28157115  0.47954928  0.21940272    -0.20000
C388        C  0.27863546  0.48197138  0.25844484    -0.10900
C389        C  0.25340691  0.47061814  0.15600019    -0.15000
C390        C  0.22474700  0.48014321  0.13217176    -0.28900
C391        C  0.23857747  0.47891717  0.31814876    -0.03200
C392        C  0.26334827  0.50061229  0.34010868    -0.39700
H393        H  0.18249052  0.46283566  0.26797463     0.13100
H394        H  0.18756567  0.45827978  0.19980117     0.12700
H395        H  0.30950263  0.48386878  0.20623329     0.12100
H396        H  0.30470791  0.48709867  0.27420603     0.12400
H397        H  0.28200809  0.46436753  0.14474153     0.15100
H398        H  0.19664303  0.48930502  0.14293628     0.13900
H399        H  0.21411551  0.46249895  0.33097455     0.11600
H400        H  0.28698759  0.51862884  0.32758230     0.13600
C401        C  0.47124166  0.49526268  0.48614384     0.19700
C402        C  0.48967317  0.53574947  0.48816062    -0.18400
C403        C  0.52973521  0.53852706  0.48900889    -0.10700
C404        C  0.55203064  0.50064846  0.48764971     0.21900
C405        C  0.53357471  0.46015699  0.48593771    -0.20000
C406        C  0.49354242  0.45737137  0.48527942    -0.10900
C407        C  0.59445839  0.50153275  0.48557948    -0.15000
C408        C  0.61702791  0.53469810  0.49661893    -0.28900
C409        C  0.42897437  0.49448266  0.48247573    -0.03200
C410        C  0.40629840  0.46001600  0.49005104    -0.39700
H411        H  0.47299237  0.56543307  0.48850148     0.13100
H412        H  0.54297423  0.57026448  0.48949471     0.12700
H413        H  0.55024840  0.43050926  0.48453623     0.12100
H414        H  0.48040575  0.42571267  0.48282881     0.12400
H415        H  0.60795513  0.47186136  0.47565500     0.15100
H416        H  0.60490149  0.56369994  0.50911014     0.13900
H417        H  0.41563678  0.52492983  0.47424568     0.11600
H418        H  0.41803652  0.43006575  0.50115559     0.13600
C419        C  0.97057329  0.49026401  0.50114177     0.19700
C420        C  0.98948927  0.53038569  0.50328268    -0.18400
C421        C  0.02948000  0.53271353  0.50103914    -0.10700
C422        C  0.05124389  0.49476247  0.49628734     0.21900
C423        C  0.03232166  0.45451813  0.49486143    -0.20000
C424        C  0.99227479  0.45218419  0.49739184    -0.10900
C425        C  0.09328906  0.49579708  0.49005905    -0.15000
C426        C  0.11641954  0.52887055  0.49982286    -0.28900
C427        C  0.92826946  0.49025100  0.49909434    -0.03200
C428        C  0.90532512  0.45692330  0.50920782    -0.39700
H429        H  0.97317062  0.56017457  0.50578796     0.13100
H430        H  0.04290134  0.56436390  0.50144583     0.12700
H431        H  0.04854077  0.42486596  0.49094105     0.12100
H432        H  0.97841094  0.42089828  0.49478848     0.12400
H433        H  0.10610487  0.46684886  0.47792577     0.15100
H434        H  0.10541812  0.55669717  0.51499334     0.13900
H435        H  0.91517202  0.52035209  0.48961212     0.11600
H436        H  0.91691126  0.42778673  0.52197767     0.13600
C437        C  0.49488271  0.01033408  0.80189603     0.19700
C438        C  0.49393357  0.04708046  0.77864541    -0.18400
C439        C  0.49075169  0.04272835  0.73977075    -0.10700
C440        C  0.48874658  0.00129712  0.72339426     0.21900
C441        C  0.49040120  0.96460859  0.74660169    -0.20000
C442        C  0.49343292  0.96895072  0.78539423    -0.10900
C443        C  0.48799901  0.99491926  0.68222192    -0.15000
C444        C  0.47511050  0.02487937  0.65790855    -0.28900
C445        C  0.49866347  0.01605037  0.84302787    -0.03200
C446        C  0.48589495  0.98634026  0.86781660    -0.39700
H447        H  0.49569463  0.07929934  0.79061809     0.13100
H448        H  0.49100212  0.07176902  0.72272960     0.12700
H449        H  0.48972079  0.93234769  0.73461097     0.12100
H450        H  0.49561696  0.93979661  0.80213233     0.12400
H451        H  0.49871825  0.96417954  0.67154115     0.15100
H452        H  0.46249335  0.05488744  0.66801508     0.13900
H453        H  0.51124699  0.04610156  0.85317512     0.11600
H454        H  0.47126230  0.95739402  0.85806124     0.13600
C455        C  0.49375164  0.98886181  0.30285480     0.19700
C456        C  0.49896139  0.95283034  0.27944955    -0.18400
C457        C  0.50054538  0.95808392  0.24044193    -0.10700
C458        C  0.49596463  0.99943787  0.22428744     0.21900
C459        C  0.49002401  0.03524327  0.24773519    -0.20000
C460        C  0.48936527  0.03014913  0.28664250    -0.10900
C461        C  0.49453049  0.00596279  0.18316197    -0.15000
C462        C  0.51571804  0.98282893  0.15869149    -0.28900
C463        C  0.49133999  0.98292724  0.34404682    -0.03200
C464        C  0.50793554  0.01111284  0.36757227    -0.39700
H465        H  0.50194094  0.92067751  0.29138949     0.13100
H466        H  0.50415429  0.92970361  0.22298131     0.12700
H467        H  0.48585506  0.06727215  0.23587564     0.12100
H468        H  0.48439963  0.05835228  0.30402698     0.12400
H469        H  0.47620416  0.03185175  0.17278724     0.15100
H470        H  0.53616432  0.95894288  0.16880398     0.13900
H471        H  0.47675088  0.95441503  0.35511309     0.11600
H472        H  0.52537187  0.03740625  0.35626388     0.13600
C473        C  0.36320809  0.70911536  0.49735094     0.19700
C474        C  0.40333734  0.71259149  0.50119934    -0.18400
C475        C  0.42111488  0.75328083  0.50371667    -0.10700
C476        C  0.39903517  0.79140332  0.50183904     0.21900
C477        C  0.35893248  0.78789353  0.49813757    -0.20000
C478        C  0.34112516  0.74726782  0.49616774    -0.10900
C479        C  0.41677116  0.83528047  0.50083215    -0.15000
C480        C  0.45047401  0.84566898  0.51706986    -0.28900
C481        C  0.34571648  0.66551721  0.49204410    -0.03200
C482        C  0.30901882  0.65560252  0.50123547    -0.39700
H483        H  0.42104796  0.68369607  0.50179645     0.13100
H484        H  0.45214943  0.75478044  0.50571650     0.12700
H485        H  0.34131844  0.81679158  0.49625022     0.12100
H486        H  0.31029297  0.74596561  0.49230069     0.12400
H487        H  0.40025287  0.86083210  0.48737883     0.15100
H488        H  0.46603829  0.82176587  0.53341927     0.13900
H489        H  0.36434507  0.64001696  0.48133452     0.11600
H490        H  0.29082541  0.67933620  0.51507496     0.13600
C491        C  0.60160061  0.21666395  0.51059410     0.19700
C492        C  0.58405692  0.25713218  0.50480242    -0.18400
C493        C  0.60650663  0.29478303  0.50227302    -0.10700
C494        C  0.64676922  0.29290514  0.50584909     0.21900
C495        C  0.66421300  0.25250546  0.51220874    -0.20000
C496        C  0.64183394  0.21486651  0.51439439    -0.10900
C497        C  0.66949602  0.33330958  0.50033667    -0.15000
C498        C  0.70534371  0.33998483  0.51356489    -0.28900
C499        C  0.57989022  0.17515176  0.50973811    -0.03200
C500        C  0.54159319  0.17040590  0.51554010    -0.39700
H501        H  0.55329322  0.25972058  0.50089027     0.13100
H502        H  0.59239286  0.32549294  0.49698623     0.12700
H503        H  0.69516233  0.24954248  0.51419613     0.12100
H504        H  0.65613797  0.18401020  0.51842969     0.12400
H505        H  0.65517540  0.35969814  0.48574720     0.15100
H506        H  0.71935166  0.31572412  0.53081572     0.13900
H507        H  0.59705539  0.14628327  0.50457225     0.11600
H508        H  0.52373832  0.19780153  0.52338482     0.13600
C509        C  0.99948037  0.01161289  0.71106322     0.19700
C510        C  0.99742727  0.04734273  0.73524669    -0.18400
C511        C  0.99735589  0.04146055  0.77412321    -0.10700
C512        C  0.99906648  0.99949400  0.78965298     0.21900
C513        C  0.00023158  0.96371807  0.76551211    -0.20000
C514        C  0.00057701  0.96960276  0.72663294    -0.10900
C515        C  0.99783329  0.99183218  0.83075088    -0.15000
C516        C  0.01108095  0.02068523  0.85572885    -0.28900
C517        C  0.99832991  0.01932782  0.66992674    -0.03200
C518        C  0.01199259  0.99093713  0.64454676    -0.39700
H519        H  0.99578531  0.07996247  0.72400124     0.13100
H520        H  0.99501141  0.06977819  0.79182276     0.12700
H521        H  0.00084118  0.93106265  0.77679416     0.12100
H522        H  0.00070100  0.94111749  0.70903260     0.12400
H523        H  0.98656474  0.96093309  0.84065485     0.15100
H524        H  0.02441526  0.05060493  0.84611519     0.13900
H525        H  0.98611565  0.04977480  0.66025908     0.11600
H526        H  0.02580472  0.96122501  0.65367952     0.13600
C527        C  0.98618117  0.02956892  0.28908919     0.19700
C528        C  0.01886340  0.02805171  0.26582526    -0.18400
C529        C  0.01520563  0.02455635  0.22698273    -0.10700
C530        C  0.97861384  0.02271335  0.21041952     0.21900
C531        C  0.94587174  0.02608694  0.23344726    -0.20000
C532        C  0.94951633  0.02926134  0.27243105    -0.10900
C533        C  0.97405744  0.01863693  0.16917974    -0.15000
C534        C  0.99950247  0.99676269  0.14785533    -0.28900
C535        C  0.99183285  0.03155711  0.33037219    -0.03200
C536        C  0.96519240  0.01858025  0.35557600    -0.39700
H537        H  0.04741708  0.02901210  0.27779419     0.13100
H538        H  0.04111781  0.02381493  0.20998369     0.12700
H539        H  0.91740351  0.02568854  0.22127219     0.12100
H540        H  0.92359358  0.03191467  0.28920831     0.12400
H541        H  0.94897269  0.03327090  0.15626862     0.15100
H542        H  0.02342916  0.98015223  0.16102286     0.13900
H543        H  0.02003477  0.04128432  0.34030108     0.11600
H544        H  0.93754168  0.00652513  0.34630715     0.13600
C545        C  0.78452051  0.01236747  0.53597594     0.19700
C546        C  0.76466808  0.97264708  0.53550104    -0.18400
C547        C  0.72452212  0.97146620  0.53625930    -0.10700
C548        C  0.70338033  0.01020483  0.53742546     0.21900
C549        C  0.72319490  0.04987209  0.53946005    -0.20000
C550        C  0.76341359  0.05105535  0.53885238    -0.10900
C551        C  0.66115932  0.01103284  0.53220480    -0.15000
C552        C  0.63727631  0.97728830  0.53856311    -0.28900
C553        C  0.82661282  0.01162000  0.52917547    -0.03200
C554        C  0.85112091  0.04503964  0.53422020    -0.39700
H555        H  0.78028080  0.94236771  0.53305623     0.13100
H556        H  0.71033490  0.94036881  0.53390019     0.12700
H557        H  0.70746034  0.08019332  0.54014751     0.12100
H558        H  0.77757510  0.08228955  0.53872129     0.12400
H559        H  0.64899373  0.04147770  0.52235332     0.15100
H560        H  0.64742064  0.94757227  0.55150967     0.13900
H561        H  0.83817387  0.98114296  0.51875328     0.11600
H562        H  0.84185135  0.07506978  0.54717210     0.13600
C563        C  0.28409001  0.98747852  0.50181354     0.19700
C564        C  0.25832490  0.02084162  0.49261382    -0.18400
C565        C  0.21864567  0.01317578  0.49351127    -0.10700
C566        C  0.20409324  0.97216306  0.50387525     0.21900
C567        C  0.22979685  0.93939329  0.51421129    -0.20000
C568        C  0.26945940  0.94676834  0.51257187    -0.10900
C569        C  0.16213569  0.96365953  0.50507160    -0.15000
C570        C  0.13871099  0.97986624  0.47877791    -0.28900
C571        C  0.32631816  0.99288402  0.49861153    -0.03200
C572        C  0.34529128  0.03050723  0.50403974    -0.39700
H573        H  0.26873096  0.05238053  0.48381661     0.13100
H574        H  0.19932276  0.03942616  0.48632750     0.12700
H575        H  0.21919025  0.90779378  0.52269704     0.12100
H576        H  0.28884177  0.92055508  0.51976945     0.12400
H577        H  0.15039392  0.94499684  0.52836606     0.15100
H578        H  0.15108696  0.99738582  0.45511172     0.13900
H579        H  0.34286721  0.96343662  0.49391057     0.11600
H580        H  0.32991111  0.05967451  0.51218031     0.13600
C581        C  0.88416836  0.80180633  0.50276020     0.19700
C582        C  0.90122671  0.76079430  0.49865231    -0.18400
C583        C  0.87880006  0.72318211  0.50190053    -0.10700
C584        C  0.83894670  0.72590016  0.50933136     0.21900
C585        C  0.82232969  0.76676832  0.51466146    -0.20000
C586        C  0.84458798  0.80431807  0.51090566    -0.10900
C587        C  0.81422971  0.68659736  0.51150719    -0.15000
C588        C  0.82075292  0.65231859  0.48929282    -0.28900
C589        C  0.90576085  0.84288904  0.49710003    -0.03200
C590        C  0.94401513  0.84809066  0.50202245    -0.39700
H591        H  0.93152997  0.75766420  0.49201856     0.13100
H592        H  0.89271182  0.69200499  0.49864231     0.12700
H593        H  0.79184738  0.76969510  0.52071841     0.12100
H594        H  0.83075897  0.83556091  0.51425079     0.12400
H595        H  0.78990302  0.68634034  0.53080829     0.15100
H596        H  0.84410555  0.65376618  0.46891920     0.13900
H597        H  0.88843311  0.87125663  0.49061749     0.11600
H598        H  0.96181534  0.82120996  0.51116673     0.13600
C599        C  0.14717116  0.29067572  0.47571937     0.19700
C600        C  0.10722780  0.29249356  0.48203376    -0.18400
C601        C  0.08537239  0.25444798  0.48473473    -0.10700
C602        C  0.10307094  0.21379647  0.48051478     0.21900
C603        C  0.14287426  0.21203009  0.47347432    -0.20000
C604        C  0.16481254  0.25000952  0.47136378    -0.10900
C605        C  0.08085281  0.17269445  0.48098540    -0.15000
C606        C  0.04790129  0.16632203  0.50050669    -0.28900
C607        C  0.16911370  0.33186727  0.47251807    -0.03200
C608        C  0.20658635  0.33605995  0.48153168    -0.39700
H609        H  0.09289697  0.32350230  0.48498486     0.13100
H610        H  0.05460946  0.25700159  0.48913809     0.12700
H611        H  0.15705876  0.18108085  0.46955198     0.12100
H612        H  0.19531199  0.24744876  0.46544131     0.12400
H613        H  0.09345785  0.14556966  0.46587196     0.15100
H614        H  0.03626224  0.19169700  0.51828283     0.13900
H615        H  0.15292282  0.36067385  0.46480932     0.11600
H616        H  0.22258013  0.30854920  0.49230908     0.13600
loop_ 
_geom_bond_atom_site_label_1 
_geom_bond_atom_site_label_2 
_geom_bond_distance 
_geom_bond_site_symmetry_2 
_ccdc_geom_bond_type 
O1           C17   1.276   1_455  A
O1           Zn7   2.031       .  S
C2           O18   1.273       .  A
C2           O15   1.277       .  A
C2          C606   1.480       .  S
O3           C16   1.278       .  A
O3          Cd10   2.088       .  S
O4           C22   1.277   1_645  A
O4          Cd13   2.079       .  S
O5           C19   1.271       .  A
O5           Cd9   2.032   1_545  S
O6           C17   1.272   1_565  A
O6           Cd9   2.064       .  S
Zn7          O18   1.997       .  S
Zn7          O20   1.993       .  S
Zn7          O12   1.933   1_455  S
O8           C19   1.276       .  A
O8          Cd13   2.095       .  S
Cd9          O11   2.042       .  S
Cd9          O12   1.976   1_565  S
Cd10         O14   2.103   1_455  S
Cd10         O23   2.069       .  S
Cd10         O12   2.013   1_465  S
O11          C21   1.272       .  A
O12         Cd13   2.020       .  S
Cd13         O15   2.094   1_655  S
O14          C21   1.278       .  A
C16          O20   1.271   1_565  A
C16         C570   1.472       .  S
C17         C536   1.478       .  S
C19         C554   1.476       .  S
C21         C590   1.483       .  S
C22          O23   1.274       .  A
C22         C518   1.477       .  S
O24          C40   1.273       .  A
O24         Zn30   1.993   1_545  S
C25          O41   1.277   1_545  A
C25          O38   1.272       .  A
C25         C464   1.473       .  S
O26          C39   1.276       .  A
O26         Cd33   2.089       .  S
O27          C45   1.272   1_545  A
O27         Cd36   2.040       .  S
O28          C42   1.278       .  A
O28         Cd32   2.109       .  S
O29          C40   1.277       .  A
O29         Cd32   2.091       .  S
Zn30         O41   2.040       .  S
Zn30         O43   2.010       .  S
Zn30         O35   1.935   1_565  S
O31          C42   1.270       .  A
O31         Cd36   2.035       .  S
Cd32         O34   2.070       .  S
Cd32         O35   2.022       .  S
Cd33         O37   2.069       .  S
Cd33         O46   2.087       .  S
Cd33         O35   2.011   1_565  S
O34          C44   1.274       .  A
O35         Cd36   1.975       .  S
Cd36         O38   2.057       .  S
O37          C44   1.277   1_565  A
C39          O43   1.274       .  A
C39         C480   1.481       .  S
C40         C572   1.477       .  S
C42         C500   1.483       .  S
C44         C444   1.475       .  S
C45          O46   1.275       .  A
C45         C552   1.473       .  S
O47          C63   1.273       .  A
O47         Zn53   1.987       .  S
C48          O64   1.277       .  A
C48          O61   1.273       .  A
C48         C392   1.478       .  S
O49          C62   1.275       .  A
O49         Cd56   2.086       .  S
O50          C68   1.272       .  A
O50         Cd59   2.030       .  S
O51          C65   1.275       .  A
O51         Cd55   2.086       .  S
O52          C63   1.273       .  A
O52         Cd55   2.067       .  S
Zn53         O64   2.039       .  S
Zn53         O66   2.003       .  S
Zn53         O58   1.934       .  S
O54          C65   1.274       .  A
O54         Cd59   2.067       .  S
Cd55         O57   2.070       .  S
Cd55         O58   2.009       .  S
Cd56         O60   2.068       .  S
Cd56         O69   2.081       .  S
Cd56         O58   2.014       .  S
O57          C67   1.275       .  A
O58         Cd59   1.980       .  S
Cd59         O61   2.065       .  S
O60          C67   1.274       .  A
C62          O66   1.272       .  A
C62         C608   1.479       .  S
C63         C426   1.468       .  S
C65         C482   1.479       .  S
C67         C374   1.474       .  S
C68          O69   1.275       .  A
C68         C410   1.471       .  S
O70          C86   1.271       .  A
O70         Zn76   2.007       .  S
C71          O87   1.268       .  A
C71          O84   1.277       .  A
C71         C588   1.474       .  S
O72          C85   1.275       .  A
O72         Cd79   2.088       .  S
O73          C91   1.274       .  A
O73         Cd82   2.065       .  S
O74          C88   1.271       .  A
O74         Cd78   2.023       .  S
O75          C86   1.274       .  A
O75         Cd78   2.075       .  S
Zn76         O87   1.983       .  S
Zn76         O89   1.964       .  S
Zn76         O81   1.915       .  S
O77          C88   1.277       .  A
O77         Cd82   2.093       .  S
Cd78         O80   2.053       .  S
Cd78         O81   1.981       .  S
Cd79         O83   2.095       .  S
Cd79         O92   2.081       .  S
Cd79         O81   2.018       .  S
O80          C90   1.273       .  A
O81         Cd82   2.018       .  S
Cd82         O84   2.099       .  S
O83          C90   1.277       .  A
C85          O89   1.270       .  A
C85         C428   1.471       .  S
C86         C354   1.476       .  S
C88         C408   1.475       .  S
C90         C498   1.480       .  S
C91          O92   1.277       .  A
C91         C338   1.475       .  S
O93         C109   1.273   1_554  A
O93         Zn99   1.980   1_565  S
C94         O110   1.275   1_565  A
C94         O107   1.272   1_655  A
C94         C534   1.476       .  S
O95         C108   1.274   1_556  A
O95        Cd102   2.083   1_655  S
O96         C114   1.271   1_565  A
O96        Cd105   2.026       .  S
O97         C111   1.277       .  A
O97        Cd101   2.097   1_455  S
O98         C109   1.276       .  A
O98        Cd101   2.080       .  S
Zn99        O110   2.035       .  S
Zn99        O112   1.999       .  S
Zn99        O104   1.930   1_655  S
O100        C111   1.273   1_554  A
O100       Cd105   2.052       .  S
Cd101       O103   2.079       .  S
Cd101       O104   2.011   1_666  S
Cd102       O106   2.065       .  S
Cd102       O115   2.082       .  S
Cd102       O104   2.012   1_556  S
O103        C113   1.277   1_665  A
O104       Cd105   1.974   1_545  S
Cd105       O107   2.058       .  S
O106        C113   1.274       .  A
C108        O112   1.272       .  A
C108        C300   1.477       .  S
C109        C264   1.472       .  S
C111        C320   1.481       .  S
C113        C516   1.475       .  S
C114        O115   1.275   1_554  A
C114        C284   1.473       .  S
O116        C132   1.273   1_564  A
O116       Zn122   1.975       .  S
C117        O133   1.273       .  A
C117        O130   1.273   1_565  A
C117        C462   1.477       .  S
O118        C131   1.275   1_556  A
O118       Cd125   2.094       .  S
O119        C137   1.273   1_545  A
O119       Cd128   2.038       .  S
O120        C134   1.278   1_556  A
O120       Cd124   2.104       .  S
O121        C132   1.277       .  A
O121       Cd124   2.089       .  S
Zn122       O133   2.028       .  S
Zn122       O135   1.992       .  S
Zn122       O127   1.920       .  S
O123        C134   1.272       .  A
O123       Cd128   2.059       .  S
Cd124       O126   2.078       .  S
Cd124       O127   2.013   1_546  S
Cd125       O129   2.062       .  S
Cd125       O138   2.068   1_556  S
Cd125       O127   2.008   1_556  S
O126        C136   1.277   1_545  A
O127       Cd128   1.979   1_565  S
Cd128       O130   2.060       .  S
O129        C136   1.273       .  A
C131        O135   1.271       .  A
C131        C248   1.482       .  S
C132        C266   1.471       .  S
C134        C228   1.478       .  S
C136        C446   1.473       .  S
C137        O138   1.274       .  A
C137        C282   1.465       .  S
O139        C155   1.276       .  A
O139       Zn145   2.032       .  S
C140        O156   1.275   1_556  A
C140        O153   1.278       .  A
C140        C230   1.488       .  S
O141        C154   1.274       .  A
O141       Cd148   2.075       .  S
O142        C160   1.277       .  A
O142       Cd151   2.076       .  S
O143        C157   1.272       .  A
O143       Cd147   2.036   1_556  S
O144        C155   1.273       .  A
O144       Cd147   2.065       .  S
Zn145       O156   2.018       .  S
Zn145       O158   1.993       .  S
Zn145       O150   1.936   1_554  S
O146        C157   1.277       .  A
O146       Cd151   2.099       .  S
Cd147       O149   2.057       .  S
Cd147       O150   1.982   1_554  S
Cd148       O152   2.088       .  S
Cd148       O161   2.064       .  S
Cd148       O150   2.012       .  S
O149        C159   1.273   1_554  A
O150       Cd151   2.017       .  S
Cd151       O153   2.100       .  S
O152        C159   1.275       .  A
C154        O158   1.273   1_556  A
C154        C192   1.475   1_556  S
C155        C390   1.478       .  S
C157        C212   1.476       .  S
C159        C318   1.480       .  S
C160        O161   1.274       .  A
C160        C372   1.474       .  S
O162        C178   1.272       .  A
O162       Zn168   1.989       .  S
C163        O179   1.276       .  A
C163        O176   1.272       .  A
C163        C356   1.476       .  S
O164        C177   1.277       .  A
O164       Cd171   2.089       .  S
O165        C183   1.272   1_554  A
O165       Cd174   2.039       .  S
O166        C180   1.276   1_556  A
O166       Cd170   2.094       .  S
O167        C178   1.275   1_556  A
O167       Cd170   2.078       .  S
Zn168       O179   2.030       .  S
Zn168       O181   1.995       .  S
Zn168       O173   1.930   1_554  S
O169        C180   1.271       .  A
O169       Cd174   2.039       .  S
Cd170       O172   2.073       .  S
Cd170       O173   2.014       .  S
Cd171       O175   2.069       .  S
Cd171       O184   2.093       .  S
Cd171       O173   2.010       .  S
O172        C182   1.275       .  A
O173       Cd174   1.976   1_556  S
Cd174       O176   2.060       .  S
O175        C182   1.276       .  A
C177        O181   1.273   1_556  A
C177        C246   1.478       .  S
C178        C194   1.472       .  S
C180        C302   1.480       .  S
C182        C336   1.477       .  S
C183        O184   1.276       .  A
C183        C210   1.477       .  S
C185        C193   1.479       .  S
C185        C186   1.405       .  A
C185        C190   1.404       .  A
C186        C187   1.399       .  A
C186        H195   1.084       .  S
C187        C188   1.405       .  A
C187        H196   1.082       .  S
C188        C191   1.477       .  S
C188        C189   1.403       .  A
C189        C190   1.394       .  A
C189        H197   1.084       .  S
C190        H198   1.082       .  S
C191        H199   1.087       .  S
C191        C192   1.346       .  D
C192        H200   1.086   1_554  S
C193        H201   1.088       .  S
C193        C194   1.348       .  D
C194        H202   1.085       .  S
C203        C211   1.482       .  S
C203        C204   1.406       .  A
C203        C208   1.404       .  A
C204        C205   1.397   1_455  A
C204        H213   1.083       .  S
C205        C206   1.404       .  A
C205        H214   1.081       .  S
C206        C209   1.483       .  S
C206        C207   1.406       .  A
C207        C208   1.398   1_655  A
C207        H215   1.083       .  S
C208        H216   1.082       .  S
C209        H217   1.087       .  S
C209        C210   1.350       .  D
C210        H218   1.084       .  S
C211        H219   1.088       .  S
C211        C212   1.350       .  D
C212        H220   1.085       .  S
C221        C229   1.497       .  S
C221        C222   1.407   1_556  A
C221        C226   1.409       .  A
C222        C223   1.400       .  A
C222        H231   1.083       .  S
C223        C224   1.406   1_554  A
C223        H232   1.082       .  S
C224        C227   1.493       .  S
C224        C225   1.405       .  A
C225        C226   1.403       .  A
C225        H233   1.083       .  S
C226        H234   1.080       .  S
C227        H235   1.087       .  S
C227        C228   1.347   1_556  D
C228        H236   1.085       .  S
C229        H237   1.087   1_556  S
C229        C230   1.354       .  D
C230        H238   1.082       .  S
C239        C247   1.482       .  S
C239        C240   1.404       .  A
C239        C244   1.405       .  A
C240        C241   1.396       .  A
C240        H249   1.083   1_554  S
C241        C242   1.404       .  A
C241        H250   1.082   1_554  S
C242        C245   1.485       .  S
C242        C243   1.407       .  A
C243        C244   1.401       .  A
C243        H251   1.083       .  S
C244        H252   1.083       .  S
C245        H253   1.087       .  S
C245        C246   1.351   1_554  D
C246        H254   1.084       .  S
C247        H255   1.087       .  S
C247        C248   1.349       .  D
C248        H256   1.086   1_554  S
C257        C265   1.476       .  S
C257        C258   1.405       .  A
C257        C262   1.403   1_566  A
C258        C259   1.395       .  A
C258        H267   1.084       .  S
C259        C260   1.403       .  A
C259        H268   1.082       .  S
C260        C263   1.476   1_556  S
C260        C261   1.404   1_566  A
C261        C262   1.395       .  A
C261        H269   1.084       .  S
C262        H270   1.082       .  S
C263        H271   1.088   1_565  S
C263        C264   1.347   1_554  D
C264        H272   1.085       .  S
C265        H273   1.088   1_556  S
C265        C266   1.347   1_565  D
C266        H274   1.085       .  S
C275        C283   1.475       .  S
C275        C276   1.403   1_545  A
C275        C280   1.405       .  A
C276        C277   1.391       .  A
C276        H285   1.084       .  S
C277        C278   1.402   1_565  A
C277        H286   1.083       .  S
C278        C281   1.471       .  S
C278        C279   1.402       .  A
C279        C280   1.396       .  A
C279        H287   1.084       .  S
C280        H288   1.081       .  S
C281        H289   1.088       .  S
C281        C282   1.345   1_545  D
C282        H290   1.086       .  S
C283        H291   1.087   1_545  S
C283        C284   1.347       .  D
C284        H292   1.084   1_554  S
C293        C301   1.482       .  S
C293        C294   1.404       .  A
C293        C298   1.405       .  A
C294        C295   1.396       .  A
C294        H303   1.084       .  S
C295        C296   1.405       .  A
C295        H304   1.081       .  S
C296        C299   1.486       .  S
C296        C297   1.406       .  A
C297        C298   1.400       .  A
C297        H305   1.084       .  S
C298        H306   1.082       .  S
C299        H307   1.088       .  S
C299        C300   1.350       .  D
C300        H308   1.085   1_554  S
C301        H309   1.088       .  S
C301        C302   1.350       .  D
C302        H310   1.085   1_554  S
C311        C319   1.486   1_556  S
C311        C312   1.406   1_556  A
C311        C316   1.405       .  A
C312        C313   1.399       .  A
C312        H321   1.083       .  S
C313        C314   1.405   1_554  A
C313        H322   1.082       .  S
C314        C317   1.486       .  S
C314        C315   1.405       .  A
C315        C316   1.400       .  A
C315        H323   1.083       .  S
C316        H324   1.082       .  S
C317        H325   1.087   1_556  S
C317        C318   1.349       .  D
C318        H326   1.085       .  S
C319        H327   1.087       .  S
C319        C320   1.350   1_554  D
C320        H328   1.085       .  S
C329        C337   1.484       .  S
C329        C330   1.402       .  A
C329        C334   1.406       .  A
C330        C331   1.398       .  A
C330        H339   1.084       .  S
C331        C332   1.409       .  A
C331        H340   1.080       .  S
C332        C335   1.488       .  S
C332        C333   1.404       .  A
C333        C334   1.397       .  A
C333        H341   1.084       .  S
C334        H342   1.082       .  S
C335        H343   1.087       .  S
C335        C336   1.347       .  D
C336        H344   1.084       .  S
C337        H345   1.087       .  S
C337        C338   1.344       .  D
C338        H346   1.086       .  S
C347        C355   1.489       .  S
C347        C348   1.403       .  A
C347        C352   1.408       .  A
C348        C349   1.398       .  A
C348        H357   1.083       .  S
C349        C350   1.403       .  A
C349        H358   1.083       .  S
C350        C353   1.489       .  S
C350        C351   1.409       .  A
C351        C352   1.398       .  A
C351        H359   1.080       .  S
C352        H360   1.081       .  S
C353        H361   1.087       .  S
C353        C354   1.346       .  D
C354        H362   1.084       .  S
C355        H363   1.087       .  S
C355        C356   1.346       .  D
C356        H364   1.084       .  S
C365        C373   1.483       .  S
C365        C366   1.402       .  A
C365        C370   1.407       .  A
C366        C367   1.397       .  A
C366        H375   1.083       .  S
C367        C368   1.409       .  A
C367        H376   1.081       .  S
C368        C371   1.485       .  S
C368        C369   1.403       .  A
C369        C370   1.397       .  A
C369        H377   1.083       .  S
C370        H378   1.082       .  S
C371        H379   1.087       .  S
C371        C372   1.345       .  D
C372        H380   1.085       .  S
C373        H381   1.087       .  S
C373        C374   1.345       .  D
C374        H382   1.085       .  S
C383        C391   1.491       .  S
C383        C384   1.404       .  A
C383        C388   1.409       .  A
C384        C385   1.401       .  A
C384        H393   1.083       .  S
C385        C386   1.408       .  A
C385        H394   1.082       .  S
C386        C389   1.488       .  S
C386        C387   1.402       .  A
C387        C388   1.398       .  A
C387        H395   1.083       .  S
C388        H396   1.081       .  S
C389        H397   1.087       .  S
C389        C390   1.346       .  D
C390        H398   1.085       .  S
C391        H399   1.087       .  S
C391        C392   1.347       .  D
C392        H400   1.084       .  S
C401        C409   1.476       .  S
C401        C402   1.405       .  A
C401        C406   1.403       .  A
C402        C403   1.395       .  A
C402        H411   1.084       .  S
C403        C404   1.403       .  A
C403        H412   1.081       .  S
C404        C407   1.476       .  S
C404        C405   1.405       .  A
C405        C406   1.394       .  A
C405        H413   1.084       .  S
C406        H414   1.081       .  S
C407        H415   1.087       .  S
C407        C408   1.350       .  D
C408        H416   1.084       .  S
C409        H417   1.088       .  S
C409        C410   1.348       .  D
C410        H418   1.085       .  S
C419        C427   1.472       .  S
C419        C420   1.403       .  A
C419        C424   1.402       .  A
C420        C421   1.393   1_655  A
C420        H429   1.083       .  S
C421        C422   1.404       .  A
C421        H430   1.082       .  S
C422        C425   1.476       .  S
C422        C423   1.405       .  A
C423        C424   1.396   1_455  A
C423        H431   1.083       .  S
C424        H432   1.083       .  S
C425        H433   1.087       .  S
C425        C426   1.346       .  D
C426        H434   1.084       .  S
C427        H435   1.088       .  S
C427        C428   1.347       .  D
C428        H436   1.085       .  S
C437        C445   1.485       .  S
C437        C438   1.403       .  A
C437        C442   1.408   1_545  A
C438        C439   1.399       .  A
C438        H447   1.084       .  S
C439        C440   1.408       .  A
C439        H448   1.081       .  S
C440        C443   1.483   1_545  S
C440        C441   1.401   1_545  A
C441        C442   1.395       .  A
C441        H449   1.084       .  S
C442        H450   1.081       .  S
C443        H451   1.088       .  S
C443        C444   1.344   1_565  D
C444        H452   1.086       .  S
C445        H453   1.088       .  S
C445        C446   1.344   1_545  D
C446        H454   1.086       .  S
C455        C463   1.482       .  S
C455        C456   1.403       .  A
C455        C460   1.405   1_565  A
C456        C457   1.401       .  A
C456        H465   1.083       .  S
C457        C458   1.407       .  A
C457        H466   1.083       .  S
C458        C461   1.481   1_565  S
C458        C459   1.402   1_565  A
C459        C460   1.396       .  A
C459        H467   1.083       .  S
C460        H468   1.083       .  S
C461        H469   1.087       .  S
C461        C462   1.345   1_545  D
C462        H470   1.086       .  S
C463        H471   1.086       .  S
C463        C464   1.343   1_565  D
C464        H472   1.087       .  S
C473        C481   1.488       .  S
C473        C474   1.406       .  A
C473        C478   1.406       .  A
C474        C475   1.401       .  A
C474        H483   1.083       .  S
C475        C476   1.406       .  A
C475        H484   1.082       .  S
C476        C479   1.487       .  S
C476        C477   1.405       .  A
C477        C478   1.399       .  A
C477        H485   1.083       .  S
C478        H486   1.082       .  S
C479        H487   1.087       .  S
C479        C480   1.349       .  D
C480        H488   1.085       .  S
C481        H489   1.087       .  S
C481        C482   1.349       .  D
C482        H490   1.085       .  S
C491        C499   1.486       .  S
C491        C492   1.404       .  A
C491        C496   1.407       .  A
C492        C493   1.401       .  A
C492        H501   1.082       .  S
C493        C494   1.407       .  A
C493        H502   1.083       .  S
C494        C497   1.486       .  S
C494        C495   1.404       .  A
C495        C496   1.398       .  A
C495        H503   1.082       .  S
C496        H504   1.083       .  S
C497        H505   1.087       .  S
C497        C498   1.351       .  D
C498        H506   1.085       .  S
C499        H507   1.087       .  S
C499        C500   1.353       .  D
C500        H508   1.085       .  S
C509        C517   1.487       .  S
C509        C510   1.403       .  A
C509        C514   1.408   1_645  A
C510        C511   1.398       .  A
C510        H519   1.083       .  S
C511        C512   1.407   1_545  A
C511        H520   1.082       .  S
C512        C515   1.485       .  S
C512        C513   1.402   1_655  A
C513        C514   1.398       .  A
C513        H521   1.083       .  S
C514        H522   1.081       .  S
C515        H523   1.087       .  S
C515        C516   1.344   1_665  D
C516        H524   1.086       .  S
C517        H525   1.087       .  S
C517        C518   1.346   1_645  D
C518        H526   1.085       .  S
C527        C535   1.489       .  S
C527        C528   1.403   1_655  A
C527        C532   1.409       .  A
C528        C529   1.397       .  A
C528        H537   1.083       .  S
C529        C530   1.407   1_455  A
C529        H538   1.082       .  S
C530        C533   1.486       .  S
C530        C531   1.403       .  A
C531        C532   1.401       .  A
C531        H539   1.083       .  S
C532        H540   1.081       .  S
C533        H541   1.086       .  S
C533        C534   1.345   1_545  D
C534        H542   1.086   1_655  S
C535        H543   1.087   1_655  S
C535        C536   1.346       .  D
C536        H544   1.084       .  S
C545        C553   1.481       .  S
C545        C546   1.405   1_545  A
C545        C550   1.404       .  A
C546        C547   1.395       .  A
C546        H555   1.084       .  S
C547        C548   1.403   1_565  A
C547        H556   1.082       .  S
C548        C551   1.480       .  S
C548        C549   1.406       .  A
C549        C550   1.398       .  A
C549        H557   1.084       .  S
C550        H558   1.081       .  S
C551        H559   1.088       .  S
C551        C552   1.348   1_545  D
C552        H560   1.085       .  S
C553        H561   1.088   1_545  S
C553        C554   1.350       .  D
C554        H562   1.084       .  S
C563        C571   1.480       .  S
C563        C564   1.404   1_565  A
C563        C568   1.405       .  A
C564        C565   1.399       .  A
C564        H573   1.082       .  S
C565        C566   1.409   1_545  A
C565        H574   1.083       .  S
C566        C569   1.481       .  S
C566        C567   1.399       .  A
C567        C568   1.397       .  A
C567        H575   1.083       .  S
C568        H576   1.084       .  S
C569        H577   1.086       .  S
C569        C570   1.342       .  D
C570        H578   1.087       .  S
C571        H579   1.088       .  S
C571        C572   1.349   1_565  D
C572        H580   1.086       .  S
C581        C589   1.484       .  S
C581        C582   1.405       .  A
C581        C586   1.406       .  A
C582        C583   1.401       .  A
C582        H591   1.082       .  S
C583        C584   1.411       .  A
C583        H592   1.082       .  S
C584        C587   1.486       .  S
C584        C585   1.399       .  A
C585        C586   1.398       .  A
C585        H593   1.083       .  S
C586        H594   1.083       .  S
C587        H595   1.087       .  S
C587        C588   1.341       .  D
C588        H596   1.086       .  S
C589        H597   1.087       .  S
C589        C590   1.351       .  D
C590        H598   1.085       .  S
C599        C607   1.485       .  S
C599        C600   1.406       .  A
C599        C604   1.405       .  A
C600        C601   1.400       .  A
C600        H609   1.083       .  S
C601        C602   1.405       .  A
C601        H610   1.082       .  S
C602        C605   1.484       .  S
C602        C603   1.405       .  A
C603        C604   1.398       .  A
C603        H611   1.083       .  S
C604        H612   1.082       .  S
C605        H613   1.087       .  S
C605        C606   1.350       .  D
C606        H614   1.085       .  S
C607        H615   1.087       .  S
C607        C608   1.350       .  D
C608        H616   1.085       .  S
