geometry optimzed in LAMMPS
_audit_creation_date              2020-11-30 
_audit_creation_method            'lammps2cif' 
_symmetry_space_group_name_H-M    'P1' 
_symmetry_Int_Tables_number       1 
_symmetry_cell_setting            triclinic 
loop_ 
_symmetry_equiv_pos_as_xyz 
  x,y,z 
_cell_length_a                    27.561631913299173 
_cell_length_b                    27.56193197767663 
_cell_length_c                    26.491485621113316 
_cell_angle_alpha                 89.99783698076912 
_cell_angle_beta                  90.00202624811257 
_cell_angle_gamma                 90.01937250276079 
loop_ 
_atom_site_label 
_atom_site_type_symbol 
_atom_site_fract_x 
_atom_site_fract_y 
_atom_site_fract_z 
_atom_site_charge 
N1          N  0.39524943  0.02352353  0.44243185    -0.04090
N2          N  0.36989598  0.04029873  0.40390011    -0.56210
N3          N  0.39525312  0.47577772  0.05892676    -0.03770
N4          N  0.36989705  0.45899658  0.09746059    -0.58330
N5          N  0.39526193  0.02352611  0.05892370    -0.03360
N6          N  0.36991223  0.04030224  0.09745472    -0.56180
N7          N  0.39524122  0.47577520  0.44243300    -0.03040
N8          N  0.36988176  0.45899296  0.40390179    -0.58690
C9          C  0.35437000  0.49964389  0.38045955     0.98090
C10         C  0.35438836  0.99964798  0.12090024     0.97870
N11         N  0.02353184  0.39525816  0.05891920    -0.04270
N12         N  0.04031133  0.36990966  0.09745247    -0.56780
N13         N  0.47577042  0.39524389  0.44242945    -0.02390
N14         N  0.45898513  0.36988237  0.40390135    -0.58040
N15         N  0.02351932  0.39525286  0.44242692    -0.04300
N16         N  0.04029156  0.36989807  0.40389780    -0.57050
N17         N  0.47578302  0.39525000  0.05892364    -0.02030
N18         N  0.45900462  0.36989580  0.09746019    -0.58120
Mn19       Mn  0.43430613  0.43430595  0.00067820     1.18440
C20         C  0.99965826  0.35438739  0.12090006     1.00170
C21         C  0.49963471  0.35437023  0.38045940     1.00840
N22         N  0.47581658  0.10408249  0.05891181    -0.04320
N23         N  0.45904407  0.12943735  0.09744073    -0.60630
N24         N  0.02355289  0.10408551  0.44241512    -0.03120
N25         N  0.04033102  0.12943994  0.40387856    -0.61300
N26         N  0.47580406  0.10407719  0.44241973    -0.03830
N27         N  0.45902430  0.12942575  0.40388664    -0.60900
N28         N  0.02356550  0.10409162  0.05890944    -0.02720
N29         N  0.04035051  0.12945337  0.09743755    -0.61590
Mn30       Mn  0.43432826  0.06500699  0.50067198     1.10660
C31         C  0.99970074  0.14496545  0.12087927     1.01390
C32         C  0.49967718  0.14494828  0.38043892     1.01470
N33         N  0.10407420  0.47580900  0.44241523    -0.03840
N34         N  0.12942398  0.45903262  0.40388439    -0.59210
N35         N  0.10409507  0.02355994  0.05890589    -0.03150
N36         N  0.12945476  0.04034190  0.09743710    -0.55940
N37         N  0.10408670  0.47581158  0.05890688    -0.04470
N38         N  0.12944023  0.45903612  0.09743843    -0.58780
N39         N  0.10408317  0.02355741  0.44241200    -0.03450
N40         N  0.12943948  0.04033827  0.40387816    -0.55960
Mn41       Mn  0.06500775  0.43432823  0.00066684     1.20190
Mn42       Mn  0.06503006  0.06502945  0.50066062     1.10090
Cl43       Cl  0.99966810  0.99966771  0.00066941    -0.83930
C44         C  0.14494810  0.49968668  0.38043875     0.98400
C45         C  0.14496647  0.99969078  0.12087912     0.98200
C46         C  0.49967671  0.22510360  0.25066418     0.02600
C47         C  0.49965707  0.27423198  0.25067465     0.02590
C48         C  0.27423256  0.49965660  0.25067213     0.02600
C49         C  0.22510381  0.49967640  0.25066670     0.02590
C50         C  0.19761515  0.49968757  0.20415444    -0.11240
C51         C  0.17389889  0.49969282  0.16591635    -0.12800
C52         C  0.19760685  0.49968410  0.29717258    -0.11240
C53         C  0.17388421  0.49968797  0.33540521    -0.12800
C54         C  0.32545226  0.49964621  0.16593374    -0.11240
C55         C  0.30172954  0.49964939  0.20416629    -0.12800
C56         C  0.32543759  0.49964136  0.33542235    -0.11240
C57         C  0.30172125  0.49964592  0.29718434    -0.12800
C58         C  0.49970506  0.17390184  0.16591319    -0.11240
C59         C  0.49969609  0.19761919  0.20414966    -0.12800
C60         C  0.49967606  0.19760272  0.29716818    -0.11320
C61         C  0.49967616  0.17388096  0.33540229    -0.12800
C62         C  0.49965820  0.30173288  0.20417070    -0.11240
C63         C  0.49965880  0.32545473  0.16593666    -0.12800
C64         C  0.49963818  0.30171641  0.29718912    -0.11240
C65         C  0.49962989  0.32543384  0.33542552    -0.12800
N66         N  0.39524944  0.02352353  0.94243185    -0.04090
N67         N  0.36989598  0.04029873  0.90390011    -0.56210
N68         N  0.39525312  0.47577772  0.55892676    -0.03770
N69         N  0.36989705  0.45899658  0.59746059    -0.58330
N70         N  0.39526193  0.02352611  0.55892370    -0.03360
N71         N  0.36991223  0.04030224  0.59745472    -0.56180
N72         N  0.39524122  0.47577520  0.94243300    -0.03040
N73         N  0.36988176  0.45899295  0.90390179    -0.58690
C74         C  0.35436999  0.49964389  0.88045955     0.98090
C75         C  0.35438836  0.99964798  0.62090024     0.97870
N76         N  0.02353184  0.39525816  0.55891920    -0.04270
N77         N  0.04031133  0.36990967  0.59745247    -0.56780
N78         N  0.47577042  0.39524388  0.94242945    -0.02390
N79         N  0.45898512  0.36988237  0.90390135    -0.58040
N80         N  0.02351932  0.39525285  0.94242692    -0.04300
N81         N  0.04029157  0.36989807  0.90389780    -0.57050
N82         N  0.47578303  0.39525000  0.55892364    -0.02030
N83         N  0.45900462  0.36989580  0.59746019    -0.58120
Mn84       Mn  0.43430613  0.43430596  0.50067820     1.18440
C85         C  0.99965826  0.35438739  0.62090006     1.00170
C86         C  0.49963470  0.35437023  0.88045940     1.00840
N87         N  0.47581658  0.10408249  0.55891181    -0.04320
N88         N  0.45904407  0.12943735  0.59744073    -0.60630
N89         N  0.02355289  0.10408551  0.94241512    -0.03120
N90         N  0.04033102  0.12943994  0.90387856    -0.61300
N91         N  0.47580406  0.10407719  0.94241973    -0.03830
N92         N  0.45902431  0.12942575  0.90388664    -0.60900
N93         N  0.02356550  0.10409162  0.55890944    -0.02720
N94         N  0.04035051  0.12945337  0.59743755    -0.61590
Mn95       Mn  0.43432827  0.06500699  0.00067198     1.10660
C96         C  0.99970074  0.14496545  0.62087927     1.01390
C97         C  0.49967719  0.14494828  0.88043892     1.01470
N98         N  0.10407420  0.47580900  0.94241523    -0.03840
N99         N  0.12942398  0.45903261  0.90388439    -0.59210
N100        N  0.10409507  0.02355994  0.55890589    -0.03150
N101        N  0.12945476  0.04034190  0.59743710    -0.55940
N102        N  0.10408670  0.47581158  0.55890688    -0.04470
N103        N  0.12944023  0.45903612  0.59743843    -0.58780
N104        N  0.10408317  0.02355741  0.94241200    -0.03450
N105        N  0.12943947  0.04033828  0.90387816    -0.55960
Mn106      Mn  0.06500775  0.43432823  0.50066684     1.20190
Mn107      Mn  0.06503006  0.06502945  0.00066062     1.10090
Cl108      Cl  0.99966810  0.99966771  0.50066941    -0.83930
C109        C  0.14494810  0.49968668  0.88043875     0.98400
C110        C  0.14496647  0.99969077  0.62087912     0.98200
C111        C  0.49967671  0.22510360  0.75066418     0.02600
C112        C  0.49965707  0.27423198  0.75067464     0.02590
C113        C  0.27423256  0.49965660  0.75067213     0.02600
C114        C  0.22510381  0.49967640  0.75066670     0.02590
C115        C  0.19761515  0.49968758  0.70415444    -0.11240
C116        C  0.17389889  0.49969282  0.66591635    -0.12800
C117        C  0.19760685  0.49968410  0.79717258    -0.11240
C118        C  0.17388421  0.49968797  0.83540521    -0.12800
C119        C  0.32545226  0.49964621  0.66593374    -0.11240
C120        C  0.30172954  0.49964939  0.70416629    -0.12800
C121        C  0.32543759  0.49964135  0.83542235    -0.11240
C122        C  0.30172125  0.49964592  0.79718434    -0.12800
C123        C  0.49970506  0.17390184  0.66591319    -0.11240
C124        C  0.49969609  0.19761919  0.70414965    -0.12800
C125        C  0.49967606  0.19760272  0.79716817    -0.11320
C126        C  0.49967616  0.17388096  0.83540229    -0.12800
C127        C  0.49965820  0.30173288  0.70417070    -0.11240
C128        C  0.49965880  0.32545473  0.66593666    -0.12800
C129        C  0.49963818  0.30171641  0.79718912    -0.11240
C130        C  0.49962989  0.32543384  0.83542551    -0.12800
N131        N  0.39524944  0.52352354  0.44243185    -0.04090
N132        N  0.36989598  0.54029873  0.40390011    -0.56210
N133        N  0.39525312  0.97577772  0.05892676    -0.03770
N134        N  0.36989705  0.95899658  0.09746059    -0.58330
N135        N  0.39526193  0.52352611  0.05892370    -0.03360
N136        N  0.36991223  0.54030224  0.09745472    -0.56180
N137        N  0.39524122  0.97577519  0.44243300    -0.03040
N138        N  0.36988176  0.95899295  0.40390179    -0.58690
C139        C  0.35436999  0.99964389  0.38045955     0.98090
C140        C  0.35438836  0.49964798  0.12090024     0.97870
N141        N  0.02353184  0.89525816  0.05891920    -0.04270
N142        N  0.04031134  0.86990967  0.09745247    -0.56780
N143        N  0.47577042  0.89524388  0.44242945    -0.02390
N144        N  0.45898513  0.86988237  0.40390135    -0.58040
N145        N  0.02351932  0.89525285  0.44242692    -0.04300
N146        N  0.04029157  0.86989807  0.40389780    -0.57050
N147        N  0.47578303  0.89525000  0.05892364    -0.02030
N148        N  0.45900462  0.86989580  0.09746019    -0.58120
Mn149      Mn  0.43430614  0.93430595  0.00067820     1.18440
C150        C  0.99965826  0.85438739  0.12090006     1.00170
C151        C  0.49963471  0.85437023  0.38045940     1.00840
N152        N  0.47581659  0.60408249  0.05891181    -0.04320
N153        N  0.45904408  0.62943735  0.09744073    -0.60630
N154        N  0.02355290  0.60408551  0.44241512    -0.03120
N155        N  0.04033102  0.62943994  0.40387856    -0.61300
N156        N  0.47580406  0.60407719  0.44241973    -0.03830
N157        N  0.45902431  0.62942575  0.40388664    -0.60900
N158        N  0.02356551  0.60409161  0.05890944    -0.02720
N159        N  0.04035051  0.62945337  0.09743755    -0.61590
Mn160      Mn  0.43432827  0.56500700  0.50067198     1.10660
C161        C  0.99970074  0.64496545  0.12087927     1.01390
C162        C  0.49967719  0.64494828  0.38043892     1.01470
N163        N  0.10407420  0.97580900  0.44241523    -0.03840
N164        N  0.12942398  0.95903262  0.40388439    -0.59210
N165        N  0.10409507  0.52355994  0.05890589    -0.03150
N166        N  0.12945476  0.54034189  0.09743710    -0.55940
N167        N  0.10408670  0.97581158  0.05890688    -0.04470
N168        N  0.12944023  0.95903613  0.09743843    -0.58780
N169        N  0.10408317  0.52355741  0.44241200    -0.03450
N170        N  0.12943948  0.54033827  0.40387816    -0.55960
Mn171      Mn  0.06500775  0.93432823  0.00066684     1.20190
Mn172      Mn  0.06503006  0.56502945  0.50066062     1.10090
Cl173      Cl  0.99966810  0.49966771  0.00066941    -0.83930
C174        C  0.14494810  0.99968668  0.38043875     0.98400
C175        C  0.14496647  0.49969077  0.12087912     0.98200
C176        C  0.49967672  0.72510360  0.25066418     0.02600
C177        C  0.49965707  0.77423198  0.25067465     0.02590
C178        C  0.27423256  0.99965660  0.25067213     0.02600
C179        C  0.22510381  0.99967641  0.25066670     0.02590
C180        C  0.19761515  0.99968758  0.20415444    -0.11240
C181        C  0.17389888  0.99969283  0.16591635    -0.12800
C182        C  0.19760685  0.99968410  0.29717258    -0.11240
C183        C  0.17388421  0.99968797  0.33540521    -0.12800
C184        C  0.32545226  0.99964621  0.16593374    -0.11240
C185        C  0.30172954  0.99964939  0.20416629    -0.12800
C186        C  0.32543759  0.99964135  0.33542235    -0.11240
C187        C  0.30172125  0.99964591  0.29718434    -0.12800
C188        C  0.49970507  0.67390184  0.16591319    -0.11240
C189        C  0.49969610  0.69761919  0.20414965    -0.12800
C190        C  0.49967607  0.69760272  0.29716817    -0.11320
C191        C  0.49967616  0.67388096  0.33540229    -0.12800
C192        C  0.49965821  0.80173288  0.20417070    -0.11240
C193        C  0.49965881  0.82545473  0.16593666    -0.12800
C194        C  0.49963818  0.80171641  0.29718912    -0.11240
C195        C  0.49962990  0.82543384  0.33542551    -0.12800
N196        N  0.39524944  0.52352353  0.94243185    -0.04090
N197        N  0.36989598  0.54029873  0.90390011    -0.56210
N198        N  0.39525311  0.97577772  0.55892676    -0.03770
N199        N  0.36989705  0.95899658  0.59746059    -0.58330
N200        N  0.39526193  0.52352612  0.55892370    -0.03360
N201        N  0.36991223  0.54030224  0.59745472    -0.56180
N202        N  0.39524122  0.97577519  0.94243300    -0.03040
N203        N  0.36988176  0.95899295  0.90390179    -0.58690
C204        C  0.35436999  0.99964388  0.88045955     0.98090
C205        C  0.35438837  0.49964798  0.62090024     0.97870
N206        N  0.02353184  0.89525816  0.55891920    -0.04270
N207        N  0.04031134  0.86990967  0.59745247    -0.56780
N208        N  0.47577042  0.89524389  0.94242945    -0.02390
N209        N  0.45898513  0.86988237  0.90390135    -0.58040
N210        N  0.02351932  0.89525286  0.94242692    -0.04300
N211        N  0.04029157  0.86989807  0.90389780    -0.57050
N212        N  0.47578303  0.89524999  0.55892364    -0.02030
N213        N  0.45900462  0.86989580  0.59746019    -0.58120
Mn214      Mn  0.43430613  0.93430595  0.50067820     1.18440
C215        C  0.99965826  0.85438739  0.62090006     1.00170
C216        C  0.49963471  0.85437023  0.88045940     1.00840
N217        N  0.47581659  0.60408249  0.55891181    -0.04320
N218        N  0.45904408  0.62943735  0.59744073    -0.60630
N219        N  0.02355290  0.60408550  0.94241512    -0.03120
N220        N  0.04033102  0.62943994  0.90387856    -0.61300
N221        N  0.47580406  0.60407719  0.94241973    -0.03830
N222        N  0.45902431  0.62942575  0.90388664    -0.60900
N223        N  0.02356551  0.60409162  0.55890944    -0.02720
N224        N  0.04035051  0.62945337  0.59743755    -0.61590
Mn225      Mn  0.43432827  0.56500699  0.00067198     1.10660
C226        C  0.99970074  0.64496545  0.62087927     1.01390
C227        C  0.49967719  0.64494828  0.88043892     1.01470
N228        N  0.10407420  0.97580901  0.94241523    -0.03840
N229        N  0.12942398  0.95903262  0.90388439    -0.59210
N230        N  0.10409507  0.52355994  0.55890589    -0.03150
N231        N  0.12945476  0.54034190  0.59743710    -0.55940
N232        N  0.10408670  0.97581158  0.55890688    -0.04470
N233        N  0.12944023  0.95903612  0.59743843    -0.58780
N234        N  0.10408318  0.52355741  0.94241200    -0.03450
N235        N  0.12943948  0.54033827  0.90387816    -0.55960
Mn236      Mn  0.06500775  0.93432823  0.50066684     1.20190
Mn237      Mn  0.06503006  0.56502945  0.00066062     1.10090
Cl238      Cl  0.99966810  0.49966771  0.50066941    -0.83930
C239        C  0.14494810  0.99968668  0.88043875     0.98400
C240        C  0.14496647  0.49969077  0.62087912     0.98200
C241        C  0.49967672  0.72510360  0.75066418     0.02600
C242        C  0.49965707  0.77423198  0.75067465     0.02590
C243        C  0.27423256  0.99965660  0.75067213     0.02600
C244        C  0.22510381  0.99967640  0.75066670     0.02590
C245        C  0.19761515  0.99968758  0.70415444    -0.11240
C246        C  0.17389888  0.99969283  0.66591635    -0.12800
C247        C  0.19760685  0.99968410  0.79717258    -0.11240
C248        C  0.17388421  0.99968797  0.83540521    -0.12800
C249        C  0.32545226  0.99964620  0.66593374    -0.11240
C250        C  0.30172954  0.99964939  0.70416629    -0.12800
C251        C  0.32543759  0.99964135  0.83542235    -0.11240
C252        C  0.30172125  0.99964591  0.79718434    -0.12800
C253        C  0.49970507  0.67390184  0.66591319    -0.11240
C254        C  0.49969610  0.69761919  0.70414966    -0.12800
C255        C  0.49967607  0.69760272  0.79716818    -0.11320
C256        C  0.49967616  0.67388096  0.83540229    -0.12800
C257        C  0.49965821  0.80173288  0.70417070    -0.11240
C258        C  0.49965880  0.82545473  0.66593666    -0.12800
C259        C  0.49963818  0.80171641  0.79718912    -0.11240
C260        C  0.49962990  0.82543384  0.83542552    -0.12800
N261        N  0.89524943  0.02352353  0.44243185    -0.04090
N262        N  0.86989598  0.04029873  0.40390011    -0.56210
N263        N  0.89525312  0.47577772  0.05892676    -0.03770
N264        N  0.86989705  0.45899658  0.09746059    -0.58330
N265        N  0.89526193  0.02352611  0.05892370    -0.03360
N266        N  0.86991223  0.04030224  0.09745472    -0.56180
N267        N  0.89524122  0.47577520  0.44243300    -0.03040
N268        N  0.86988176  0.45899296  0.40390179    -0.58690
C269        C  0.85436999  0.49964389  0.38045955     0.98090
C270        C  0.85438836  0.99964798  0.12090024     0.97870
N271        N  0.52353184  0.39525816  0.05891920    -0.04270
N272        N  0.54031133  0.36990966  0.09745247    -0.56780
N273        N  0.97577042  0.39524389  0.44242945    -0.02390
N274        N  0.95898512  0.36988237  0.40390135    -0.58040
N275        N  0.52351932  0.39525286  0.44242692    -0.04300
N276        N  0.54029156  0.36989807  0.40389780    -0.57050
N277        N  0.97578303  0.39524999  0.05892364    -0.02030
N278        N  0.95900462  0.36989580  0.09746019    -0.58120
Mn279      Mn  0.93430613  0.43430595  0.00067820     1.18440
C280        C  0.49965826  0.35438739  0.12090006     1.00170
C281        C  0.99963470  0.35437023  0.38045940     1.00840
N282        N  0.97581658  0.10408249  0.05891181    -0.04320
N283        N  0.95904407  0.12943735  0.09744073    -0.60630
N284        N  0.52355289  0.10408551  0.44241512    -0.03120
N285        N  0.54033102  0.12943994  0.40387856    -0.61300
N286        N  0.97580406  0.10407719  0.44241973    -0.03830
N287        N  0.95902431  0.12942575  0.40388664    -0.60900
N288        N  0.52356550  0.10409162  0.05890944    -0.02720
N289        N  0.54035051  0.12945337  0.09743755    -0.61590
Mn290      Mn  0.93432826  0.06500699  0.50067198     1.10660
C291        C  0.49970074  0.14496545  0.12087927     1.01390
C292        C  0.99967719  0.14494828  0.38043892     1.01470
N293        N  0.60407420  0.47580900  0.44241523    -0.03840
N294        N  0.62942398  0.45903261  0.40388439    -0.59210
N295        N  0.60409507  0.02355994  0.05890589    -0.03150
N296        N  0.62945476  0.04034190  0.09743710    -0.55940
N297        N  0.60408670  0.47581158  0.05890688    -0.04470
N298        N  0.62944023  0.45903612  0.09743843    -0.58780
N299        N  0.60408317  0.02355741  0.44241200    -0.03450
N300        N  0.62943947  0.04033827  0.40387816    -0.55960
Mn301      Mn  0.56500775  0.43432823  0.00066684     1.20190
Mn302      Mn  0.56503006  0.06502945  0.50066062     1.10090
Cl303      Cl  0.49966810  0.99966771  0.00066941    -0.83930
C304        C  0.64494810  0.49968668  0.38043875     0.98400
C305        C  0.64496647  0.99969078  0.12087912     0.98200
C306        C  0.99967671  0.22510360  0.25066418     0.02600
C307        C  0.99965707  0.27423198  0.25067465     0.02590
C308        C  0.77423256  0.49965660  0.25067213     0.02600
C309        C  0.72510381  0.49967640  0.25066670     0.02590
C310        C  0.69761515  0.49968757  0.20415444    -0.11240
C311        C  0.67389889  0.49969282  0.16591635    -0.12800
C312        C  0.69760685  0.49968410  0.29717258    -0.11240
C313        C  0.67388421  0.49968797  0.33540521    -0.12800
C314        C  0.82545226  0.49964621  0.16593374    -0.11240
C315        C  0.80172954  0.49964939  0.20416629    -0.12800
C316        C  0.82543759  0.49964136  0.33542235    -0.11240
C317        C  0.80172125  0.49964591  0.29718434    -0.12800
C318        C  0.99970506  0.17390184  0.16591319    -0.11240
C319        C  0.99969609  0.19761919  0.20414965    -0.12800
C320        C  0.99967606  0.19760272  0.29716818    -0.11320
C321        C  0.99967616  0.17388096  0.33540229    -0.12800
C322        C  0.99965820  0.30173288  0.20417070    -0.11240
C323        C  0.99965880  0.32545473  0.16593666    -0.12800
C324        C  0.99963818  0.30171641  0.29718912    -0.11240
C325        C  0.99962989  0.32543384  0.33542552    -0.12800
N326        N  0.89524943  0.02352353  0.94243185    -0.04090
N327        N  0.86989598  0.04029873  0.90390011    -0.56210
N328        N  0.89525312  0.47577772  0.55892676    -0.03770
N329        N  0.86989705  0.45899658  0.59746059    -0.58330
N330        N  0.89526193  0.02352611  0.55892370    -0.03360
N331        N  0.86991223  0.04030224  0.59745472    -0.56180
N332        N  0.89524122  0.47577519  0.94243300    -0.03040
N333        N  0.86988176  0.45899295  0.90390179    -0.58690
C334        C  0.85436999  0.49964389  0.88045955     0.98090
C335        C  0.85438836  0.99964798  0.62090024     0.97870
N336        N  0.52353184  0.39525816  0.55891920    -0.04270
N337        N  0.54031133  0.36990967  0.59745247    -0.56780
N338        N  0.97577042  0.39524388  0.94242945    -0.02390
N339        N  0.95898513  0.36988237  0.90390135    -0.58040
N340        N  0.52351932  0.39525285  0.94242692    -0.04300
N341        N  0.54029156  0.36989807  0.90389780    -0.57050
N342        N  0.97578302  0.39525000  0.55892364    -0.02030
N343        N  0.95900462  0.36989580  0.59746019    -0.58120
Mn344      Mn  0.93430613  0.43430596  0.50067820     1.18440
C345        C  0.49965826  0.35438739  0.62090006     1.00170
C346        C  0.99963471  0.35437023  0.88045940     1.00840
N347        N  0.97581658  0.10408249  0.55891181    -0.04320
N348        N  0.95904407  0.12943735  0.59744073    -0.60630
N349        N  0.52355289  0.10408551  0.94241512    -0.03120
N350        N  0.54033102  0.12943994  0.90387856    -0.61300
N351        N  0.97580406  0.10407719  0.94241973    -0.03830
N352        N  0.95902430  0.12942575  0.90388664    -0.60900
N353        N  0.52356550  0.10409161  0.55890944    -0.02720
N354        N  0.54035051  0.12945337  0.59743755    -0.61590
Mn355      Mn  0.93432826  0.06500699  0.00067198     1.10660
C356        C  0.49970074  0.14496545  0.62087927     1.01390
C357        C  0.99967718  0.14494828  0.88043892     1.01470
N358        N  0.60407420  0.47580900  0.94241523    -0.03840
N359        N  0.62942398  0.45903261  0.90388439    -0.59210
N360        N  0.60409507  0.02355994  0.55890589    -0.03150
N361        N  0.62945476  0.04034190  0.59743710    -0.55940
N362        N  0.60408670  0.47581158  0.55890688    -0.04470
N363        N  0.62944023  0.45903612  0.59743843    -0.58780
N364        N  0.60408317  0.02355741  0.94241200    -0.03450
N365        N  0.62943948  0.04033828  0.90387816    -0.55960
Mn366      Mn  0.56500775  0.43432823  0.50066684     1.20190
Mn367      Mn  0.56503006  0.06502945  0.00066062     1.10090
Cl368      Cl  0.49966810  0.99966771  0.50066941    -0.83930
C369        C  0.64494810  0.49968668  0.88043875     0.98400
C370        C  0.64496647  0.99969077  0.62087912     0.98200
C371        C  0.99967671  0.22510360  0.75066418     0.02600
C372        C  0.99965707  0.27423198  0.75067464     0.02590
C373        C  0.77423256  0.49965660  0.75067213     0.02600
C374        C  0.72510381  0.49967640  0.75066670     0.02590
C375        C  0.69761515  0.49968757  0.70415444    -0.11240
C376        C  0.67389889  0.49969282  0.66591635    -0.12800
C377        C  0.69760685  0.49968410  0.79717258    -0.11240
C378        C  0.67388421  0.49968797  0.83540521    -0.12800
C379        C  0.82545226  0.49964621  0.66593374    -0.11240
C380        C  0.80172954  0.49964939  0.70416629    -0.12800
C381        C  0.82543759  0.49964135  0.83542235    -0.11240
C382        C  0.80172125  0.49964591  0.79718434    -0.12800
C383        C  0.99970506  0.17390184  0.66591319    -0.11240
C384        C  0.99969609  0.19761919  0.70414965    -0.12800
C385        C  0.99967606  0.19760272  0.79716817    -0.11320
C386        C  0.99967616  0.17388096  0.83540229    -0.12800
C387        C  0.99965821  0.30173288  0.70417070    -0.11240
C388        C  0.99965880  0.32545473  0.66593666    -0.12800
C389        C  0.99963818  0.30171641  0.79718912    -0.11240
C390        C  0.99962989  0.32543384  0.83542551    -0.12800
N391        N  0.89524944  0.52352354  0.44243185    -0.04090
N392        N  0.86989598  0.54029873  0.40390011    -0.56210
N393        N  0.89525311  0.97577772  0.05892676    -0.03770
N394        N  0.86989705  0.95899658  0.09746059    -0.58330
N395        N  0.89526193  0.52352611  0.05892370    -0.03360
N396        N  0.86991223  0.54030224  0.09745472    -0.56180
N397        N  0.89524122  0.97577519  0.44243300    -0.03040
N398        N  0.86988176  0.95899295  0.40390179    -0.58690
C399        C  0.85436999  0.99964389  0.38045955     0.98090
C400        C  0.85438836  0.49964798  0.12090024     0.97870
N401        N  0.52353184  0.89525816  0.05891920    -0.04270
N402        N  0.54031134  0.86990967  0.09745247    -0.56780
N403        N  0.97577042  0.89524389  0.44242945    -0.02390
N404        N  0.95898513  0.86988237  0.40390135    -0.58040
N405        N  0.52351932  0.89525285  0.44242692    -0.04300
N406        N  0.54029157  0.86989807  0.40389780    -0.57050
N407        N  0.97578303  0.89525000  0.05892364    -0.02030
N408        N  0.95900462  0.86989580  0.09746019    -0.58120
Mn409      Mn  0.93430613  0.93430595  0.00067820     1.18440
C410        C  0.49965826  0.85438739  0.12090006     1.00170
C411        C  0.99963471  0.85437023  0.38045940     1.00840
N412        N  0.97581659  0.60408249  0.05891181    -0.04320
N413        N  0.95904408  0.62943735  0.09744073    -0.60630
N414        N  0.52355290  0.60408551  0.44241512    -0.03120
N415        N  0.54033103  0.62943994  0.40387856    -0.61300
N416        N  0.97580406  0.60407719  0.44241973    -0.03830
N417        N  0.95902431  0.62942575  0.40388664    -0.60900
N418        N  0.52356551  0.60409161  0.05890944    -0.02720
N419        N  0.54035051  0.62945337  0.09743755    -0.61590
Mn420      Mn  0.93432827  0.56500700  0.50067198     1.10660
C421        C  0.49970074  0.64496545  0.12087927     1.01390
C422        C  0.99967719  0.64494828  0.38043892     1.01470
N423        N  0.60407420  0.97580900  0.44241523    -0.03840
N424        N  0.62942398  0.95903262  0.40388439    -0.59210
N425        N  0.60409507  0.52355993  0.05890589    -0.03150
N426        N  0.62945477  0.54034189  0.09743710    -0.55940
N427        N  0.60408670  0.97581158  0.05890688    -0.04470
N428        N  0.62944023  0.95903613  0.09743843    -0.58780
N429        N  0.60408318  0.52355741  0.44241200    -0.03450
N430        N  0.62943948  0.54033827  0.40387816    -0.55960
Mn431      Mn  0.56500775  0.93432823  0.00066684     1.20190
Mn432      Mn  0.56503006  0.56502945  0.50066062     1.10090
Cl433      Cl  0.49966810  0.49966771  0.00066941    -0.83930
C434        C  0.64494810  0.99968668  0.38043875     0.98400
C435        C  0.64496647  0.49969077  0.12087912     0.98200
C436        C  0.99967672  0.72510360  0.25066418     0.02600
C437        C  0.99965707  0.77423198  0.25067465     0.02590
C438        C  0.77423256  0.99965660  0.25067213     0.02600
C439        C  0.72510381  0.99967641  0.25066670     0.02590
C440        C  0.69761515  0.99968758  0.20415444    -0.11240
C441        C  0.67389888  0.99969283  0.16591635    -0.12800
C442        C  0.69760685  0.99968410  0.29717258    -0.11240
C443        C  0.67388421  0.99968797  0.33540521    -0.12800
C444        C  0.82545226  0.99964621  0.16593374    -0.11240
C445        C  0.80172954  0.99964939  0.20416629    -0.12800
C446        C  0.82543759  0.99964135  0.33542235    -0.11240
C447        C  0.80172125  0.99964591  0.29718434    -0.12800
C448        C  0.99970507  0.67390184  0.16591319    -0.11240
C449        C  0.99969609  0.69761919  0.20414965    -0.12800
C450        C  0.99967607  0.69760272  0.29716817    -0.11320
C451        C  0.99967616  0.67388096  0.33540229    -0.12800
C452        C  0.99965821  0.80173288  0.20417070    -0.11240
C453        C  0.99965881  0.82545473  0.16593666    -0.12800
C454        C  0.99963818  0.80171641  0.29718912    -0.11240
C455        C  0.99962990  0.82543384  0.33542551    -0.12800
N456        N  0.89524944  0.52352353  0.94243185    -0.04090
N457        N  0.86989598  0.54029873  0.90390011    -0.56210
N458        N  0.89525312  0.97577772  0.55892676    -0.03770
N459        N  0.86989705  0.95899658  0.59746059    -0.58330
N460        N  0.89526193  0.52352611  0.55892370    -0.03360
N461        N  0.86991223  0.54030224  0.59745472    -0.56180
N462        N  0.89524122  0.97577519  0.94243300    -0.03040
N463        N  0.86988176  0.95899295  0.90390179    -0.58690
C464        C  0.85436999  0.99964388  0.88045955     0.98090
C465        C  0.85438836  0.49964798  0.62090024     0.97870
N466        N  0.52353184  0.89525816  0.55891920    -0.04270
N467        N  0.54031133  0.86990967  0.59745247    -0.56780
N468        N  0.97577042  0.89524389  0.94242945    -0.02390
N469        N  0.95898513  0.86988237  0.90390135    -0.58040
N470        N  0.52351932  0.89525286  0.94242692    -0.04300
N471        N  0.54029157  0.86989807  0.90389780    -0.57050
N472        N  0.97578303  0.89525000  0.55892364    -0.02030
N473        N  0.95900462  0.86989580  0.59746019    -0.58120
Mn474      Mn  0.93430613  0.93430595  0.50067820     1.18440
C475        C  0.49965826  0.85438739  0.62090006     1.00170
C476        C  0.99963471  0.85437023  0.88045940     1.00840
N477        N  0.97581659  0.60408249  0.55891181    -0.04320
N478        N  0.95904408  0.62943735  0.59744073    -0.60630
N479        N  0.52355290  0.60408550  0.94241512    -0.03120
N480        N  0.54033102  0.62943994  0.90387856    -0.61300
N481        N  0.97580406  0.60407719  0.94241973    -0.03830
N482        N  0.95902431  0.62942575  0.90388664    -0.60900
N483        N  0.52356551  0.60409162  0.55890944    -0.02720
N484        N  0.54035052  0.62945337  0.59743755    -0.61590
Mn485      Mn  0.93432827  0.56500699  0.00067198     1.10660
C486        C  0.49970074  0.64496545  0.62087927     1.01390
C487        C  0.99967719  0.64494828  0.88043892     1.01470
N488        N  0.60407420  0.97580901  0.94241523    -0.03840
N489        N  0.62942398  0.95903262  0.90388439    -0.59210
N490        N  0.60409507  0.52355994  0.55890589    -0.03150
N491        N  0.62945477  0.54034190  0.59743710    -0.55940
N492        N  0.60408670  0.97581158  0.55890688    -0.04470
N493        N  0.62944023  0.95903612  0.59743843    -0.58780
N494        N  0.60408318  0.52355741  0.94241200    -0.03450
N495        N  0.62943948  0.54033827  0.90387816    -0.55960
Mn496      Mn  0.56500775  0.93432823  0.50066684     1.20190
Mn497      Mn  0.56503006  0.56502945  0.00066062     1.10090
Cl498      Cl  0.49966810  0.49966771  0.50066941    -0.83930
C499        C  0.64494810  0.99968668  0.88043874     0.98400
C500        C  0.64496647  0.49969077  0.62087912     0.98200
C501        C  0.99967672  0.72510360  0.75066418     0.02600
C502        C  0.99965707  0.77423198  0.75067465     0.02590
C503        C  0.77423256  0.99965660  0.75067213     0.02600
C504        C  0.72510381  0.99967640  0.75066670     0.02590
C505        C  0.69761515  0.99968758  0.70415444    -0.11240
C506        C  0.67389888  0.99969283  0.66591635    -0.12800
C507        C  0.69760685  0.99968410  0.79717258    -0.11240
C508        C  0.67388421  0.99968797  0.83540521    -0.12800
C509        C  0.82545226  0.99964620  0.66593374    -0.11240
C510        C  0.80172954  0.99964939  0.70416629    -0.12800
C511        C  0.82543759  0.99964135  0.83542235    -0.11240
C512        C  0.80172125  0.99964591  0.79718434    -0.12800
C513        C  0.99970507  0.67390184  0.66591319    -0.11240
C514        C  0.99969609  0.69761919  0.70414966    -0.12800
C515        C  0.99967607  0.69760272  0.79716818    -0.11320
C516        C  0.99967616  0.67388096  0.83540229    -0.12800
C517        C  0.99965821  0.80173288  0.70417070    -0.11240
C518        C  0.99965881  0.82545473  0.66593666    -0.12800
C519        C  0.99963818  0.80171641  0.79718912    -0.11240
C520        C  0.99962990  0.82543384  0.83542552    -0.12800
loop_ 
_geom_bond_atom_site_label_1 
_geom_bond_atom_site_label_2 
_geom_bond_distance 
_geom_bond_site_symmetry_2 
_ccdc_geom_bond_type 
N1            N2   1.321       .  A
N1          N137   1.316   1_545  A
N1          Mn30   2.202       .  S
N2          C139   1.351   1_545  A
N3            N4   1.321       .  A
N3          N135   1.316       .  A
N3          Mn19   2.202       .  S
N4          C140   1.351       .  A
N5            N6   1.321       .  A
N5          N133   1.316   1_545  A
N5          Mn95   2.202       .  S
N6           C10   1.351   1_545  A
N7            N8   1.321       .  A
N7          N131   1.316       .  A
N7          Mn84   2.202       .  S
N8            C9   1.351       .  A
C9          N132   1.351       .  A
C9           C56   1.435       .  S
C10         N134   1.351       .  A
C10         C184   1.435       .  S
N11          N12   1.321       .  A
N11         N277   1.316   1_455  A
N11         Mn41   2.202       .  S
N12          C20   1.351   1_455  A
N13          N14   1.321       .  A
N13         N275   1.316       .  A
N13         Mn84   2.202       .  S
N14          C21   1.351       .  A
N15          N16   1.321       .  A
N15         N273   1.316   1_455  A
N15        Mn106   2.202       .  S
N16         C281   1.351   1_455  A
N17          N18   1.321       .  A
N17         N271   1.316       .  A
N17         Mn19   2.202       .  S
N18         C280   1.351       .  A
Mn19         N72   2.202   1_554  S
Mn19         N78   2.202   1_554  S
Mn19       Cl433   2.547       .  S
C20         N278   1.351       .  A
C20         C323   1.435       .  S
C21         N276   1.351       .  A
C21          C65   1.435       .  S
N22          N23   1.321       .  A
N22         N288   1.316       .  A
N22         Mn95   2.202       .  S
N23         C291   1.351       .  A
N24          N25   1.321       .  A
N24         N286   1.316   1_455  A
N24         Mn42   2.202       .  S
N25         C292   1.351   1_455  A
N26          N27   1.321       .  A
N26         N284   1.316       .  A
N26         Mn30   2.202       .  S
N27          C32   1.351       .  A
N28          N29   1.321       .  A
N28         N282   1.316   1_455  A
N28        Mn107   2.202       .  S
N29          C31   1.351   1_455  A
Mn30         N70   2.202       .  S
Mn30         N87   2.202       .  S
Mn30       Cl368   2.547   1_545  S
C31         N283   1.351       .  A
C31         C318   1.435       .  S
C32         N285   1.351       .  A
C32          C61   1.435       .  S
N33          N34   1.321       .  A
N33         N169   1.316       .  A
N33        Mn106   2.202       .  S
N34          C44   1.351       .  A
N35          N36   1.321       .  A
N35         N167   1.316   1_545  A
N35        Mn107   2.202       .  S
N36          C45   1.351   1_545  A
N37          N38   1.321       .  A
N37         N165   1.316       .  A
N37         Mn41   2.202       .  S
N38         C175   1.351       .  A
N39          N40   1.321       .  A
N39         N163   1.316   1_545  A
N39         Mn42   2.202       .  S
N40         C174   1.351   1_545  A
Mn41         N80   2.202   1_554  S
Mn41         N98   2.202   1_554  S
Mn41       Cl173   2.547   1_455  S
Mn42         N93   2.202       .  S
Mn42        N100   2.202       .  S
Mn42       Cl108   2.547   1_445  S
Cl43       Mn409   2.547       .  S
Cl43       Mn355   2.547   1_565  S
Cl43       Mn171   2.547   1_655  S
Cl43       Mn107   2.547   1_665  S
C44         N170   1.351       .  A
C44          C53   1.435       .  S
C45         N168   1.351       .  A
C45         C181   1.435       .  S
C46          C47   1.354       .  D
C46          C59   1.446       .  S
C46          C60   1.446       .  S
C47          C62   1.446       .  S
C47          C64   1.446       .  S
C48          C49   1.354       .  D
C48          C55   1.446       .  S
C48          C57   1.446       .  S
C49          C50   1.446       .  S
C49          C52   1.446       .  S
C50          C51   1.206       .  T
C51         C175   1.435       .  S
C52          C53   1.206       .  T
C54         C140   1.435       .  S
C54          C55   1.206       .  T
C56          C57   1.206       .  T
C58         C291   1.435       .  S
C58          C59   1.206       .  T
C60          C61   1.206       .  T
C62          C63   1.206       .  T
C63         C280   1.435       .  S
C64          C65   1.206       .  T
N66          N67   1.321       .  A
N66         N202   1.316   1_545  A
N66         Mn95   2.202   1_556  S
N67         C204   1.351   1_545  A
N68         N200   1.316       .  A
N68          N69   1.321       .  A
N68         Mn84   2.202       .  S
N69         C205   1.351       .  A
N70         N198   1.316   1_545  A
N70          N71   1.321       .  A
N71          C75   1.351   1_545  A
N72         N196   1.316       .  A
N72          N73   1.321       .  A
N73          C74   1.351       .  A
C74         N197   1.351       .  A
C74         C121   1.435       .  S
C75         N199   1.351       .  A
C75         C249   1.435       .  S
N76         N342   1.316   1_455  A
N76          N77   1.321       .  A
N76        Mn106   2.202       .  S
N77          C85   1.351   1_455  A
N78          N79   1.321       .  A
N78         N340   1.316       .  A
N79          C86   1.351       .  A
N80         N338   1.316   1_455  A
N80          N81   1.321       .  A
N81         C346   1.351   1_455  A
N82         N336   1.316       .  A
N82          N83   1.321       .  A
N82         Mn84   2.202       .  S
N83         C345   1.351       .  A
Mn84       Cl498   2.547       .  S
C85         N343   1.351       .  A
C85         C388   1.435       .  S
C86         N341   1.351       .  A
C86         C130   1.435       .  S
N87          N88   1.321       .  A
N87         N353   1.316       .  A
N88         C356   1.351       .  A
N89         N351   1.316   1_455  A
N89          N90   1.321       .  A
N89        Mn107   2.202   1_556  S
N90         C357   1.351   1_455  A
N91         N349   1.316       .  A
N91          N92   1.321       .  A
N91         Mn95   2.202   1_556  S
N92          C97   1.351       .  A
N93         N347   1.316   1_455  A
N93          N94   1.321       .  A
N94          C96   1.351   1_455  A
Mn95       Cl303   2.547   1_545  S
C96         N348   1.351       .  A
C96         C383   1.435       .  S
C97         N350   1.351       .  A
C97         C126   1.435       .  S
N98          N99   1.321       .  A
N98         N234   1.316       .  A
N99         C109   1.351       .  A
N100        N101   1.321       .  A
N100        N232   1.316   1_545  A
N101        C110   1.351   1_545  A
N102        N230   1.316       .  A
N102        N103   1.321       .  A
N102       Mn106   2.202       .  S
N103        C240   1.351       .  A
N104        N228   1.316   1_545  A
N104        N105   1.321       .  A
N104       Mn107   2.202   1_556  S
N105        C239   1.351   1_545  A
Mn106      Cl238   2.547   1_455  S
Cl108      Mn474   2.547       .  S
Cl108      Mn290   2.547   1_565  S
Cl108      Mn236   2.547   1_655  S
C109        N235   1.351       .  A
C109        C118   1.435       .  S
C110        N233   1.351       .  A
C110        C246   1.435       .  S
C111        C112   1.354       .  D
C111        C124   1.446       .  S
C111        C125   1.446       .  S
C112        C127   1.446       .  S
C112        C129   1.446       .  S
C113        C114   1.354       .  D
C113        C120   1.446       .  S
C113        C122   1.446       .  S
C114        C115   1.446       .  S
C114        C117   1.446       .  S
C115        C116   1.206       .  T
C116        C240   1.435       .  S
C117        C118   1.206       .  T
C119        C205   1.435       .  S
C119        C120   1.206       .  T
C121        C122   1.206       .  T
C123        C356   1.435       .  S
C123        C124   1.206       .  T
C125        C126   1.206       .  T
C127        C128   1.206       .  T
C128        C345   1.435       .  S
C129        C130   1.206       .  T
N131        N132   1.321       .  A
N131       Mn160   2.202       .  S
N133        N134   1.321       .  A
N133       Mn149   2.202       .  S
N135        N136   1.321       .  A
N135       Mn225   2.202       .  S
N136        C140   1.351       .  A
N137        N138   1.321       .  A
N137       Mn214   2.202       .  S
N138        C139   1.351       .  A
C139        C186   1.435       .  S
N141        N407   1.316   1_455  A
N141        N142   1.321       .  A
N141       Mn171   2.202       .  S
N142        C150   1.351   1_455  A
N143        N144   1.321       .  A
N143        N405   1.316       .  A
N143       Mn214   2.202       .  S
N144        C151   1.351       .  A
N145        N403   1.316   1_455  A
N145        N146   1.321       .  A
N145       Mn236   2.202       .  S
N146        C411   1.351   1_455  A
N147        N401   1.316       .  A
N147        N148   1.321       .  A
N147       Mn149   2.202       .  S
N148        C410   1.351       .  A
Mn149       N202   2.202   1_554  S
Mn149       N208   2.202   1_554  S
Mn149      Cl303   2.547       .  S
C150        N408   1.351       .  A
C150        C453   1.435       .  S
C151        N406   1.351       .  A
C151        C195   1.435       .  S
N152        N153   1.321       .  A
N152        N418   1.316       .  A
N152       Mn225   2.202       .  S
N153        C421   1.351       .  A
N154        N416   1.316   1_455  A
N154        N155   1.321       .  A
N154       Mn172   2.202       .  S
N155        C422   1.351   1_455  A
N156        N414   1.316       .  A
N156        N157   1.321       .  A
N156       Mn160   2.202       .  S
N157        C162   1.351       .  A
N158        N412   1.316   1_455  A
N158        N159   1.321       .  A
N158       Mn237   2.202       .  S
N159        C161   1.351   1_455  A
Mn160       N200   2.202       .  S
Mn160       N217   2.202       .  S
Mn160      Cl498   2.547       .  S
C161        N413   1.351       .  A
C161        C448   1.435       .  S
C162        N415   1.351       .  A
C162        C191   1.435       .  S
N163        N164   1.321       .  A
N163       Mn236   2.202       .  S
N164        C174   1.351       .  A
N165        N166   1.321       .  A
N165       Mn237   2.202       .  S
N166        C175   1.351       .  A
N167        N168   1.321       .  A
N167       Mn171   2.202       .  S
N169        N170   1.321       .  A
N169       Mn172   2.202       .  S
Mn171       N210   2.202   1_554  S
Mn171       N228   2.202   1_554  S
Mn172       N223   2.202       .  S
Mn172       N230   2.202       .  S
Mn172      Cl238   2.547   1_455  S
Cl173      Mn279   2.547       .  S
Cl173      Mn485   2.547       .  S
Cl173      Mn237   2.547   1_655  S
C174        C183   1.435       .  S
C176        C177   1.354       .  D
C176        C189   1.446       .  S
C176        C190   1.446       .  S
C177        C192   1.446       .  S
C177        C194   1.446       .  S
C178        C179   1.354       .  D
C178        C185   1.446       .  S
C178        C187   1.446       .  S
C179        C180   1.446       .  S
C179        C182   1.446       .  S
C180        C181   1.206       .  T
C182        C183   1.206       .  T
C184        C185   1.206       .  T
C186        C187   1.206       .  T
C188        C421   1.435       .  S
C188        C189   1.206       .  T
C190        C191   1.206       .  T
C192        C193   1.206       .  T
C193        C410   1.435       .  S
C194        C195   1.206       .  T
N196        N197   1.321       .  A
N196       Mn225   2.202   1_556  S
N198        N199   1.321       .  A
N198       Mn214   2.202       .  S
N200        N201   1.321       .  A
N201        C205   1.351       .  A
N202        N203   1.321       .  A
N203        C204   1.351       .  A
C204        C251   1.435       .  S
N206        N472   1.316   1_455  A
N206        N207   1.321       .  A
N206       Mn236   2.202       .  S
N207        C215   1.351   1_455  A
N208        N209   1.321       .  A
N208        N470   1.316       .  A
N209        C216   1.351       .  A
N210        N468   1.316   1_455  A
N210        N211   1.321       .  A
N211        C476   1.351   1_455  A
N212        N466   1.316       .  A
N212        N213   1.321       .  A
N212       Mn214   2.202       .  S
N213        C475   1.351       .  A
Mn214      Cl368   2.547       .  S
C215        N473   1.351       .  A
C215        C518   1.435       .  S
C216        N471   1.351       .  A
C216        C260   1.435       .  S
N217        N218   1.321       .  A
N217        N483   1.316       .  A
N218        C486   1.351       .  A
N219        N481   1.316   1_455  A
N219        N220   1.321       .  A
N219       Mn237   2.202   1_556  S
N220        C487   1.351   1_455  A
N221        N479   1.316       .  A
N221        N222   1.321       .  A
N221       Mn225   2.202   1_556  S
N222        C227   1.351       .  A
N223        N477   1.316   1_455  A
N223        N224   1.321       .  A
N224        C226   1.351   1_455  A
Mn225      Cl433   2.547       .  S
C226        N478   1.351       .  A
C226        C513   1.435       .  S
C227        N480   1.351       .  A
C227        C256   1.435       .  S
N228        N229   1.321       .  A
N229        C239   1.351       .  A
N230        N231   1.321       .  A
N231        C240   1.351       .  A
N232        N233   1.321       .  A
N232       Mn236   2.202       .  S
N234        N235   1.321       .  A
N234       Mn237   2.202   1_556  S
Cl238      Mn344   2.547       .  S
Cl238      Mn420   2.547       .  S
C239        C248   1.435       .  S
C241        C242   1.354       .  D
C241        C254   1.446       .  S
C241        C255   1.446       .  S
C242        C257   1.446       .  S
C242        C259   1.446       .  S
C243        C244   1.354       .  D
C243        C250   1.446       .  S
C243        C252   1.446       .  S
C244        C245   1.446       .  S
C244        C247   1.446       .  S
C245        C246   1.206       .  T
C247        C248   1.206       .  T
C249        C250   1.206       .  T
C251        C252   1.206       .  T
C253        C486   1.435       .  S
C253        C254   1.206       .  T
C255        C256   1.206       .  T
C257        C258   1.206       .  T
C258        C475   1.435       .  S
C259        C260   1.206       .  T
N261        N262   1.321       .  A
N261        N397   1.316   1_545  A
N261       Mn290   2.202       .  S
N262        C399   1.351   1_545  A
N263        N395   1.316       .  A
N263        N264   1.321       .  A
N263       Mn279   2.202       .  S
N264        C400   1.351       .  A
N265        N393   1.316   1_545  A
N265        N266   1.321       .  A
N265       Mn355   2.202       .  S
N266        C270   1.351   1_545  A
N267        N391   1.316       .  A
N267        N268   1.321       .  A
N267       Mn344   2.202       .  S
N268        C269   1.351       .  A
C269        N392   1.351       .  A
C269        C316   1.435       .  S
C270        N394   1.351       .  A
C270        C444   1.435       .  S
N271        N272   1.321       .  A
N271       Mn301   2.202       .  S
N272        C280   1.351       .  A
N273        N274   1.321       .  A
N273       Mn344   2.202       .  S
N274        C281   1.351       .  A
N275        N276   1.321       .  A
N275       Mn366   2.202       .  S
N277        N278   1.321       .  A
N277       Mn279   2.202       .  S
Mn279       N332   2.202   1_554  S
Mn279       N338   2.202   1_554  S
C281        C325   1.435       .  S
N282        N283   1.321       .  A
N282       Mn355   2.202       .  S
N284        N285   1.321       .  A
N284       Mn302   2.202       .  S
N286        N287   1.321       .  A
N286       Mn290   2.202       .  S
N287        C292   1.351       .  A
N288        N289   1.321       .  A
N288       Mn367   2.202       .  S
N289        C291   1.351       .  A
Mn290       N330   2.202       .  S
Mn290       N347   2.202       .  S
C292        C321   1.435       .  S
N293        N294   1.321       .  A
N293        N429   1.316       .  A
N293       Mn366   2.202       .  S
N294        C304   1.351       .  A
N295        N296   1.321       .  A
N295        N427   1.316   1_545  A
N295       Mn367   2.202       .  S
N296        C305   1.351   1_545  A
N297        N425   1.316       .  A
N297        N298   1.321       .  A
N297       Mn301   2.202       .  S
N298        C435   1.351       .  A
N299        N423   1.316   1_545  A
N299        N300   1.321       .  A
N299       Mn302   2.202       .  S
N300        C434   1.351   1_545  A
Mn301       N340   2.202   1_554  S
Mn301       N358   2.202   1_554  S
Mn301      Cl433   2.547       .  S
Mn302       N353   2.202       .  S
Mn302       N360   2.202       .  S
Mn302      Cl368   2.547   1_545  S
Cl303      Mn431   2.547       .  S
Cl303      Mn367   2.547   1_565  S
C304        N430   1.351       .  A
C304        C313   1.435       .  S
C305        N428   1.351       .  A
C305        C441   1.435       .  S
C306        C307   1.354       .  D
C306        C319   1.446       .  S
C306        C320   1.446       .  S
C307        C322   1.446       .  S
C307        C324   1.446       .  S
C308        C309   1.354       .  D
C308        C315   1.446       .  S
C308        C317   1.446       .  S
C309        C310   1.446       .  S
C309        C312   1.446       .  S
C310        C311   1.206       .  T
C311        C435   1.435       .  S
C312        C313   1.206       .  T
C314        C400   1.435       .  S
C314        C315   1.206       .  T
C316        C317   1.206       .  T
C318        C319   1.206       .  T
C320        C321   1.206       .  T
C322        C323   1.206       .  T
C324        C325   1.206       .  T
N326        N327   1.321       .  A
N326        N462   1.316   1_545  A
N326       Mn355   2.202   1_556  S
N327        C464   1.351   1_545  A
N328        N460   1.316       .  A
N328        N329   1.321       .  A
N328       Mn344   2.202       .  S
N329        C465   1.351       .  A
N330        N458   1.316   1_545  A
N330        N331   1.321       .  A
N331        C335   1.351   1_545  A
N332        N456   1.316       .  A
N332        N333   1.321       .  A
N333        C334   1.351       .  A
C334        N457   1.351       .  A
C334        C381   1.435       .  S
C335        N459   1.351       .  A
C335        C509   1.435       .  S
N336        N337   1.321       .  A
N336       Mn366   2.202       .  S
N337        C345   1.351       .  A
N338        N339   1.321       .  A
N339        C346   1.351       .  A
N340        N341   1.321       .  A
N342        N343   1.321       .  A
N342       Mn344   2.202       .  S
C346        C390   1.435       .  S
N347        N348   1.321       .  A
N349        N350   1.321       .  A
N349       Mn367   2.202   1_556  S
N351        N352   1.321       .  A
N351       Mn355   2.202   1_556  S
N352        C357   1.351       .  A
N353        N354   1.321       .  A
N354        C356   1.351       .  A
C357        C386   1.435       .  S
N358        N359   1.321       .  A
N358        N494   1.316       .  A
N359        C369   1.351       .  A
N360        N361   1.321       .  A
N360        N492   1.316   1_545  A
N361        C370   1.351   1_545  A
N362        N490   1.316       .  A
N362        N363   1.321       .  A
N362       Mn366   2.202       .  S
N363        C500   1.351       .  A
N364        N488   1.316   1_545  A
N364        N365   1.321       .  A
N364       Mn367   2.202   1_556  S
N365        C499   1.351   1_545  A
Mn366      Cl498   2.547       .  S
Cl368      Mn496   2.547       .  S
C369        N495   1.351       .  A
C369        C378   1.435       .  S
C370        N493   1.351       .  A
C370        C506   1.435       .  S
C371        C372   1.354       .  D
C371        C384   1.446       .  S
C371        C385   1.446       .  S
C372        C387   1.446       .  S
C372        C389   1.446       .  S
C373        C374   1.354       .  D
C373        C380   1.446       .  S
C373        C382   1.446       .  S
C374        C375   1.446       .  S
C374        C377   1.446       .  S
C375        C376   1.206       .  T
C376        C500   1.435       .  S
C377        C378   1.206       .  T
C379        C465   1.435       .  S
C379        C380   1.206       .  T
C381        C382   1.206       .  T
C383        C384   1.206       .  T
C385        C386   1.206       .  T
C387        C388   1.206       .  T
C389        C390   1.206       .  T
N391        N392   1.321       .  A
N391       Mn420   2.202       .  S
N393        N394   1.321       .  A
N393       Mn409   2.202       .  S
N395        N396   1.321       .  A
N395       Mn485   2.202       .  S
N396        C400   1.351       .  A
N397        N398   1.321       .  A
N397       Mn474   2.202       .  S
N398        C399   1.351       .  A
C399        C446   1.435       .  S
N401        N402   1.321       .  A
N401       Mn431   2.202       .  S
N402        C410   1.351       .  A
N403        N404   1.321       .  A
N403       Mn474   2.202       .  S
N404        C411   1.351       .  A
N405        N406   1.321       .  A
N405       Mn496   2.202       .  S
N407        N408   1.321       .  A
N407       Mn409   2.202       .  S
Mn409       N462   2.202   1_554  S
Mn409       N468   2.202   1_554  S
C411        C455   1.435       .  S
N412        N413   1.321       .  A
N412       Mn485   2.202       .  S
N414        N415   1.321       .  A
N414       Mn432   2.202       .  S
N416        N417   1.321       .  A
N416       Mn420   2.202       .  S
N417        C422   1.351       .  A
N418        N419   1.321       .  A
N418       Mn497   2.202       .  S
N419        C421   1.351       .  A
Mn420       N460   2.202       .  S
Mn420       N477   2.202       .  S
C422        C451   1.435       .  S
N423        N424   1.321       .  A
N423       Mn496   2.202       .  S
N424        C434   1.351       .  A
N425        N426   1.321       .  A
N425       Mn497   2.202       .  S
N426        C435   1.351       .  A
N427        N428   1.321       .  A
N427       Mn431   2.202       .  S
N429        N430   1.321       .  A
N429       Mn432   2.202       .  S
Mn431       N470   2.202   1_554  S
Mn431       N488   2.202   1_554  S
Mn432       N483   2.202       .  S
Mn432       N490   2.202       .  S
Mn432      Cl498   2.547       .  S
Cl433      Mn497   2.547       .  S
C434        C443   1.435       .  S
C436        C437   1.354       .  D
C436        C449   1.446       .  S
C436        C450   1.446       .  S
C437        C452   1.446       .  S
C437        C454   1.446       .  S
C438        C439   1.354       .  D
C438        C445   1.446       .  S
C438        C447   1.446       .  S
C439        C440   1.446       .  S
C439        C442   1.446       .  S
C440        C441   1.206       .  T
C442        C443   1.206       .  T
C444        C445   1.206       .  T
C446        C447   1.206       .  T
C448        C449   1.206       .  T
C450        C451   1.206       .  T
C452        C453   1.206       .  T
C454        C455   1.206       .  T
N456        N457   1.321       .  A
N456       Mn485   2.202   1_556  S
N458        N459   1.321       .  A
N458       Mn474   2.202       .  S
N460        N461   1.321       .  A
N461        C465   1.351       .  A
N462        N463   1.321       .  A
N463        C464   1.351       .  A
C464        C511   1.435       .  S
N466        N467   1.321       .  A
N466       Mn496   2.202       .  S
N467        C475   1.351       .  A
N468        N469   1.321       .  A
N469        C476   1.351       .  A
N470        N471   1.321       .  A
N472        N473   1.321       .  A
N472       Mn474   2.202       .  S
C476        C520   1.435       .  S
N477        N478   1.321       .  A
N479        N480   1.321       .  A
N479       Mn497   2.202   1_556  S
N481        N482   1.321       .  A
N481       Mn485   2.202   1_556  S
N482        C487   1.351       .  A
N483        N484   1.321       .  A
N484        C486   1.351       .  A
C487        C516   1.435       .  S
N488        N489   1.321       .  A
N489        C499   1.351       .  A
N490        N491   1.321       .  A
N491        C500   1.351       .  A
N492        N493   1.321       .  A
N492       Mn496   2.202       .  S
N494        N495   1.321       .  A
N494       Mn497   2.202   1_556  S
C499        C508   1.435       .  S
C501        C502   1.354       .  D
C501        C514   1.446       .  S
C501        C515   1.446       .  S
C502        C517   1.446       .  S
C502        C519   1.446       .  S
C503        C504   1.354       .  D
C503        C510   1.446       .  S
C503        C512   1.446       .  S
C504        C505   1.446       .  S
C504        C507   1.446       .  S
C505        C506   1.206       .  T
C507        C508   1.206       .  T
C509        C510   1.206       .  T
C511        C512   1.206       .  T
C513        C514   1.206       .  T
C515        C516   1.206       .  T
C517        C518   1.206       .  T
C519        C520   1.206       .  T
