geometry optimzed in LAMMPS
_audit_creation_date              2020-11-30 
_audit_creation_method            'lammps2cif' 
_symmetry_space_group_name_H-M    'P1' 
_symmetry_Int_Tables_number       1 
_symmetry_cell_setting            triclinic 
loop_ 
_symmetry_equiv_pos_as_xyz 
  x,y,z 
_cell_length_a                    35.56126916 
_cell_length_b                    19.970348347435582 
_cell_length_c                    37.09657540415442 
_cell_angle_alpha                 89.37514643445708 
_cell_angle_beta                  90.02341057626764 
_cell_angle_gamma                 89.7046949406518 
loop_ 
_atom_site_label 
_atom_site_type_symbol 
_atom_site_fract_x 
_atom_site_fract_y 
_atom_site_fract_z 
_atom_site_charge 
C1          C  0.09595319  0.16889607  0.36334655     0.02200
C2          C  0.09261970  0.09817861  0.36536125     0.02200
C3          C  0.11442115  0.06191498  0.39027821    -0.18300
C4          C  0.14068858  0.09342219  0.41271128     0.02200
C5          C  0.14237283  0.16554437  0.41248900     0.02200
C6          C  0.12011591  0.20132855  0.38721352    -0.18300
H7          H  0.12234521  0.25483106  0.38418875     0.04200
H8          H  0.11253629  0.00770951  0.39069182     0.04200
O9          O  0.97943375  0.44800209  0.17045017    -0.74500
O10         O  0.90281467  0.46850589  0.24237262    -0.74500
O11         O  0.90313779  0.45525239  0.16999405    -0.74600
O12         O  0.97944650  0.46210540  0.24374436    -0.74600
O13         O  0.98203393  0.07256810  0.23570916    -0.74600
O14         O  0.90696346  0.06527550  0.16094119    -0.74500
O15         O  0.90575687  0.07862128  0.23369596    -0.74500
O16         O  0.98321759  0.05812268  0.16229979    -0.74600
Ni17       Ni  0.94131565  0.45451352  0.20687106     1.25400
Ni18       Ni  0.94475574  0.07261350  0.19802960     1.25400
C19         C  0.99285808  0.49863750  0.15352375     0.87700
C20         C  0.89090487  0.02751806  0.24919901     0.87600
C21         C  0.89237782  0.50861571  0.15345567     0.87600
C22         C  0.99256949  0.01932903  0.25247957     0.87800
O23         O  0.90477131  0.32392748  0.17092951    -0.74500
O24         O  0.98283565  0.31668774  0.24305387    -0.74500
O25         O  0.98140764  0.31818998  0.17009951    -0.74600
O26         O  0.90632170  0.32219199  0.24490391    -0.74600
O27         O  0.90522504  0.21093248  0.24366171    -0.74600
O28         O  0.97951557  0.20730056  0.16756046    -0.74500
O29         O  0.98130813  0.20555224  0.24057683    -0.74500
O30         O  0.90233583  0.21277333  0.16932408    -0.74600
Ni31       Ni  0.94373178  0.32416249  0.20711978     1.25400
Ni32       Ni  0.94177791  0.20515772  0.20523495     1.25400
C33         C  0.89099358  0.27025359  0.15792122     0.87700
C34         C  0.99535927  0.25932457  0.25326005     0.87600
C35         C  0.99389838  0.26307283  0.15734469     0.87600
C36         C  0.89444959  0.26632709  0.25761956     0.87800
C37         C  0.09186462  0.41154575  0.04120835     0.02200
C38         C  0.09683301  0.34155996  0.04672943     0.02200
C39         C  0.12186796  0.30698211  0.02473756    -0.18300
C40         C  0.14398115  0.33976227  0.99861576     0.02200
C41         C  0.14113698  0.41160884  0.99479291     0.02200
C42         C  0.11340092  0.44520103  0.01492825    -0.18300
H43         H  0.10881016  0.49832624  0.01111608     0.04200
H44         H  0.12547567  0.25356604  0.02920498     0.04200
C45         C  0.67285484  0.20342321  0.48556916     0.86400
C46         C  0.68810796  0.26387087  0.00641752    -0.53800
C47         C  0.70922155  0.30806669  0.48552086     0.09300
C48         C  0.71090445  0.28723821  0.44486363     0.20300
C49         C  0.65022035  0.23775130  0.45509751    -0.54500
C50         C  0.66913558  0.28435515  0.43496247     0.09400
C51         C  0.70968685  0.17569349  0.47121903    -0.54100
C52         C  0.72496481  0.21138372  0.44411950     0.10000
H53         H  0.68587507  0.26783696  0.03549518     0.14500
H54         H  0.72728049  0.32236519  0.42772779     0.00300
H55         H  0.62030377  0.22885339  0.45172148     0.14800
H56         H  0.72093030  0.12801189  0.48011957     0.14600
C57         C  0.71263962  0.04961248  0.42192009     0.86400
C58         C  0.73668502  0.51547190  0.45184881    -0.53800
C59         C  0.71854711  0.46815856  0.47249568     0.09300
C60         C  0.67675604  0.46469376  0.46386701     0.20300
C61         C  0.69697914  0.48878610  0.40171209    -0.54500
C62         C  0.67717817  0.44427427  0.42328678     0.09400
C63         C  0.67609310  0.07612811  0.43755202    -0.54100
C64         C  0.66262254  0.04015491  0.46559632     0.10000
H65         H  0.76655399  0.52534728  0.45466259     0.14500
H66         H  0.66103968  0.42869525  0.48100259     0.00300
H67         H  0.69698701  0.48519720  0.37252310     0.14800
H68         H  0.66434327  0.12365802  0.42914130     0.14600
C69         C  0.64700112  0.07704311  0.99843002     0.02200
C70         C  0.64800394  0.14967623  0.00457414     0.02200
C71         C  0.62053912  0.17641785  0.02735310    -0.18300
C72         C  0.59900978  0.13626651  0.05019842     0.02200
C73         C  0.60522948  0.06589497  0.05086170     0.02200
C74         C  0.62848157  0.03740432  0.02452361    -0.18300
H75         H  0.63153680  0.98364745  0.02421963     0.04200
H76         H  0.61604468  0.23013778  0.02757138     0.04200
C77         C  0.64917897  0.39934245  0.40611740     0.02200
C78         C  0.64835365  0.32753305  0.40824931     0.02200
C79         C  0.62262191  0.29354203  0.38623673    -0.18300
C80         C  0.59803693  0.32758073  0.36307916     0.02200
C81         C  0.59810431  0.39827489  0.36187070     0.02200
C82         C  0.62317802  0.43286396  0.38351832    -0.18300
H83         H  0.62351182  0.48711912  0.38146492     0.04200
H84         H  0.62169164  0.23924654  0.38691568     0.04200
C85         C  0.28100989  0.33157997  0.35307527     0.02200
C86         C  0.28843789  0.40082607  0.35742353     0.02200
C87         C  0.26716133  0.43754697  0.38187908    -0.18300
C88         C  0.23937912  0.40769822  0.40336227     0.02200
C89         C  0.23510406  0.33513102  0.40208299     0.02200
C90         C  0.25426338  0.30037686  0.37501491    -0.18300
H91         H  0.24955081  0.24708189  0.37214255     0.04200
H92         H  0.27256205  0.49067536  0.38445571     0.04200
C93         C  0.21658077  0.45668802  0.42642497     0.86400
C94         C  0.19329763  0.01090657  0.40665607    -0.53800
C95         C  0.17023329  0.04757853  0.42903281     0.09300
C96         C  0.17581068  0.02768070  0.47021990     0.20300
C97         C  0.23969883  0.99614463  0.45400942    -0.54500
C98         C  0.21923307  0.03742889  0.47598270     0.09400
C99         C  0.18680707  0.42024852  0.44621194    -0.54100
C100        C  0.16851798  0.45136370  0.47218193     0.10000
H101        H  0.19283255  0.01619657  0.37749302     0.14500
H102        H  0.15743810  0.05184497  0.49014054     0.00300
H103        H  0.27021489  0.99375008  0.45488923     0.14800
H104        H  0.16714438  0.39841710  0.42817862     0.14600
C105        C  0.24272118  0.15553230  0.00229928     0.02200
C106        C  0.23987808  0.08227736  0.00258801     0.02200
C107        C  0.26404946  0.04633005  0.02586115    -0.18300
C108        C  0.29016232  0.07809949  0.04782972     0.02200
C109        C  0.29250713  0.14858950  0.04768357     0.02200
C110        C  0.26921351  0.18593529  0.02494056    -0.18300
H111        H  0.27120005  0.24011031  0.02556541     0.04200
H112        H  0.26323840  0.99200283  0.02634893     0.04200
C113        C  0.21915966  0.20541036  0.47996664     0.86400
C114        C  0.24059400  0.24784895  0.45154013    -0.53800
C115        C  0.21819878  0.28974335  0.43085812     0.09300
C116        C  0.17576297  0.27891239  0.43914234     0.20300
C117        C  0.19681343  0.25747184  0.00133592    -0.54500
C118        C  0.17276546  0.29579587  0.48058860     0.09400
C119        C  0.18881244  0.16980448  0.46085832    -0.54100
C120        C  0.16937000  0.20301028  0.43597457     0.10000
H121        H  0.27096907  0.24604540  0.44873382     0.14500
H122        H  0.15559229  0.30416828  0.42139658     0.00300
H123        H  0.19790148  0.26048906  0.03054330     0.14800
H124        H  0.16999416  0.14586698  0.47906905     0.14600
O125        O  0.48402446  0.42456315  0.23747165    -0.74500
O126        O  0.40818877  0.42998082  0.16325124    -0.74500
O127        O  0.48527255  0.42747679  0.16471716    -0.74600
O128        O  0.40802548  0.42614675  0.23696993    -0.74600
O129        O  0.40758162  0.03727452  0.23975237    -0.74600
O130        O  0.48536983  0.03841422  0.16758126    -0.74500
O131        O  0.40864796  0.04121873  0.16597166    -0.74500
O132        O  0.48368977  0.03581238  0.24055232    -0.74600
Ni133      Ni  0.44615646  0.42308518  0.20048840     1.25400
Ni134      Ni  0.44620116  0.04218664  0.20329076     1.25400
C135        C  0.49632180  0.47886420  0.25116335     0.87700
C136        C  0.39605839  0.98723103  0.15232765     0.87600
C137        C  0.49922004  0.98389808  0.15531019     0.87600
C138        C  0.39619824  0.48027584  0.25135839     0.87800
O139        O  0.40711651  0.29399030  0.24032188    -0.74500
O140        O  0.48382870  0.27784926  0.16825444    -0.74500
O141        O  0.40779573  0.28339186  0.16747210    -0.74600
O142        O  0.48339273  0.28957237  0.24159111    -0.74600
O143        O  0.48079129  0.17895696  0.24918540    -0.74600
O144        O  0.40497591  0.17282606  0.17491641    -0.74500
O145        O  0.48119184  0.16742140  0.17593337    -0.74500
O146        O  0.40401300  0.18352671  0.24720665    -0.74600
Ni147      Ni  0.44573385  0.29019805  0.20437818     1.25400
Ni148      Ni  0.44287945  0.17171132  0.21206321     1.25400
C149        C  0.39176377  0.24208493  0.25441106     0.87700
C150        C  0.49409832  0.21882475  0.15932158     0.87600
C151        C  0.39393221  0.22666994  0.15897890     0.87600
C152        C  0.49424546  0.23598587  0.25780902     0.87800
C153        C  0.78422173  0.11650222  0.35477038     0.02200
C154        C  0.78995323  0.18412084  0.36400757     0.02200
C155        C  0.76947066  0.21191577  0.39253160    -0.18300
C156        C  0.74325144  0.17421901  0.41270602     0.02200
C157        C  0.73614733  0.10431836  0.40170991     0.02200
C158        C  0.75726025  0.07901133  0.37286298    -0.18300
H159        H  0.75457083  0.02721609  0.36511401     0.04200
H160        H  0.77535441  0.26313220  0.39989471     0.04200
C161        C  0.78709199  0.42703591  0.04707939     0.02200
C162        C  0.78616353  0.35648429  0.04944753     0.02200
C163        C  0.76131538  0.32125658  0.02775077    -0.18300
C164        C  0.73659142  0.35395329  0.00354693     0.02200
C165        C  0.73897673  0.42570839  0.99973570     0.02200
C166        C  0.76397740  0.46043486  0.02226443    -0.18300
H167        H  0.76513614  0.51467961  0.02096207     0.04200
H168        H  0.76089541  0.26706966  0.03026970     0.04200
C169        C  0.30304270  0.18658456  0.11032662    -0.01900
C170        C  0.31580272  0.18387850  0.07465700     0.07800
C171        C  0.35085404  0.21230644  0.06588328    -0.02000
C172        C  0.37459481  0.23497058  0.09368930    -0.02000
C173        C  0.36517066  0.22197215  0.13005910     0.07900
C174        C  0.32849376  0.19997719  0.13810458    -0.02200
Br175      Br  0.31209810  0.18799509  0.18660525    -0.00800
Br176      Br  0.25004640  0.17805536  0.12041936    -0.00900
Br177      Br  0.41904378  0.28482370  0.08191038    -0.00800
Br178      Br  0.36593939  0.22116601  0.01622528    -0.00800
C179        C  0.35269604  0.02521941  0.06131287    -0.01900
C180        C  0.31513184  0.03705899  0.07124958     0.07800
C181        C  0.30246884  0.01544862  0.10519388    -0.02000
C182        C  0.32879253  0.99790278  0.13191426    -0.02000
C183        C  0.36733683  0.99274359  0.12339187     0.07900
C184        C  0.37845477  0.00074068  0.08713622    -0.02200
Br185      Br  0.42835424  0.97733327  0.07250914    -0.00800
Br186      Br  0.36823810  0.04059130  0.01215869    -0.00900
Br187      Br  0.31152026  0.48557696  0.18011360    -0.00800
Br188      Br  0.24925112  0.00752151  0.11445232    -0.03600
C189        C  0.35588699  0.41444245  0.33904665    -0.01900
C190        C  0.31818710  0.43564253  0.33608726     0.07800
C191        C  0.30892185  0.48653092  0.31079582    -0.02000
C192        C  0.33572319  0.50667564  0.28496387    -0.02000
C193        C  0.37094580  0.47429009  0.28320151     0.07900
C194        C  0.38178055  0.43193521  0.31201563    -0.02200
Br195      Br  0.43274591  0.40059056  0.31531176    -0.00800
Br196      Br  0.37227637  0.36419840  0.38091101    -0.00900
Br197      Br  0.32428082  0.07996830  0.25355949    -0.00800
Br198      Br  0.25934528  0.02702562  0.31001007    -0.00800
C199        C  0.30025866  0.31276340  0.28961600    -0.01900
C200        C  0.30167880  0.29169434  0.32575741     0.07800
C201        C  0.32662413  0.23928197  0.33575103    -0.02000
C202        C  0.35385910  0.21693707  0.31092715    -0.02000
C203        C  0.35827387  0.25139644  0.27767661     0.07900
C204        C  0.32996522  0.29695147  0.26648734    -0.02200
Br205      Br  0.33135395  0.33901350  0.21972141    -0.00800
Br206      Br  0.25717238  0.36238859  0.27205453    -0.00900
Br207      Br  0.38451596  0.14021298  0.32329159    -0.00800
Br208      Br  0.32542363  0.20028072  0.38363390    -0.00800
C209        C  0.58685823  0.43050621  0.29807886    -0.01900
C210        C  0.57604932  0.43577060  0.33421667     0.07800
C211        C  0.54359876  0.47330240  0.34278424    -0.02000
C212        C  0.51944010  0.49564547  0.31481163    -0.02000
C213        C  0.52596182  0.47436555  0.27915548     0.07900
C214        C  0.56069768  0.44422363  0.27085317    -0.02200
Br215      Br  0.57302711  0.92061562  0.22259921    -0.00800
Br216      Br  0.63845778  0.41058936  0.28620180    -0.00900
Br217      Br  0.47805482  0.55473510  0.32530188    -0.00800
Br218      Br  0.53265921  0.49461137  0.39220874    -0.00800
C219        C  0.58615043  0.25809347  0.30840259    -0.01900
C220        C  0.57247082  0.28856020  0.33984447     0.07800
C221        C  0.53389969  0.28506559  0.34785008    -0.02000
C222        C  0.50886782  0.25896986  0.32234461    -0.02000
C223        C  0.52166603  0.24197858  0.28773241     0.07900
C224        C  0.56069864  0.23876550  0.28146776    -0.02200
Br225      Br  0.57976307  0.21041814  0.23606802    -0.00800
Br226      Br  0.63935496  0.24126845  0.30261855    -0.00900
Br227      Br  0.45775356  0.24295048  0.33556879    -0.00800
Br228      Br  0.51566422  0.31411480  0.39406447    -0.00800
C229        C  0.58120166  0.21699923  0.09973172    -0.01900
C230        C  0.57054576  0.16890558  0.07394884     0.07800
C231        C  0.53264285  0.14885542  0.07229344    -0.02000
C232        C  0.50783055  0.16538376  0.10027373    -0.02000
C233        C  0.51943306  0.20797698  0.12814050     0.07900
C234        C  0.55518206  0.23770042  0.12597782    -0.02200
Br235      Br  0.56908523  0.30631495  0.15869881    -0.00800
Br236      Br  0.63160079  0.25321652  0.10091243    -0.00900
Br237      Br  0.45760261  0.13038650  0.09984136    -0.00800
Br238      Br  0.51409478  0.10220628  0.03068436    -0.00800
C239        C  0.59178552  0.04219229  0.11551939    -0.01900
C240        C  0.58727699  0.02333465  0.07944874     0.07800
C241        C  0.56069057  0.97312554  0.07150889    -0.02000
C242        C  0.53486558  0.95252585  0.09835171    -0.02000
C243        C  0.53262713  0.98790481  0.13111052     0.07900
C244        C  0.56270699  0.03042316  0.14020030    -0.02200
Br245      Br  0.56420117  0.07520842  0.18560595    -0.00800
Br246      Br  0.63772931  0.08458175  0.13049519    -0.00900
Br247      Br  0.50342774  0.37656421  0.08974934    -0.00800
Br248      Br  0.55743003  0.43526316  0.02395510    -0.00800
C249        C  0.05678703  0.30887443  0.13924519    -0.01900
C250        C  0.02623425  0.26645651  0.13154240     0.07800
C251        C  0.02665208  0.23224087  0.09839258    -0.02000
C252        C  0.05065442  0.25400545  0.07024993    -0.02000
C253        C  0.07725074  0.30486652  0.07676103     0.07900
C254        C  0.08357030  0.32399853  0.11259204    -0.02200
Br255      Br  0.13035838  0.36582425  0.12538303    -0.00800
Br256      Br  0.06314089  0.34456620  0.18662960    -0.00900
Br257      Br  0.04613995  0.21504340  0.02304482    -0.00800
Br258      Br  0.99715277  0.15340712  0.09188738    -0.00800
C259        C  0.83362242  0.29277319  0.29132089    -0.01900
C260        C  0.86981300  0.26354753  0.29021693     0.07800
C261        C  0.88236575  0.22796757  0.32090866    -0.02000
C262        C  0.85690708  0.20844474  0.34795131    -0.02000
C263        C  0.81858508  0.22466592  0.34433253     0.07900
C264        C  0.80776204  0.27287861  0.31824094    -0.02200
Br265      Br  0.75759051  0.31025720  0.31895402    -0.00800
Br266      Br  0.82028499  0.36319240  0.25850896    -0.00900
Br267      Br  0.87428754  0.16124902  0.39039864    -0.00800
Br268      Br  0.93503964  0.21360263  0.32776169    -0.00800
C269        C  0.79785617  0.30003665  0.10928536    -0.01900
C270        C  0.81099160  0.31900667  0.07494692     0.07800
C271        C  0.84858887  0.30559944  0.06579962    -0.02000
C272        C  0.87378581  0.28185618  0.09235645    -0.02000
C273        C  0.86236606  0.27630237  0.12866554     0.07900
C274        C  0.82376473  0.28301190  0.13662552    -0.02200
Br275      Br  0.80584440  0.27126625  0.18469033    -0.00800
Br276      Br  0.74453930  0.29349056  0.11816564    -0.00900
Br277      Br  0.92305894  0.25412021  0.07840030    -0.00800
Br278      Br  0.86491349  0.31720565  0.01657740    -0.00800
C279        C  0.05364815  0.51423333  0.11847021    -0.01900
C280        C  0.01730912  0.48661802  0.12163917     0.07800
C281        C  0.00371959  0.44620171  0.09356827    -0.02000
C282        C  0.02668325  0.43073580  0.06401595    -0.02000
C283        C  0.06473267  0.44949508  0.06395348     0.07900
C284        C  0.07752477  0.49534905  0.08989161    -0.02200
Br285      Br  0.12823634  0.52980181  0.08760359    -0.00800
Br286      Br  0.07202831  0.07430754  0.15406685    -0.00900
Br287      Br  0.00616245  0.38418433  0.02322022    -0.00800
Br288      Br  0.95388511  0.40990145  0.09568533    -0.00800
C289        C  0.79929734  0.46974744  0.10847894    -0.01900
C290        C  0.81044247  0.46610298  0.07237367     0.07800
C291        C  0.84535243  0.49307135  0.06203180    -0.02000
C292        C  0.87047797  0.51564379  0.08870778    -0.02000
C293        C  0.86256994  0.50345507  0.12554002     0.07900
C294        C  0.82623434  0.48158333  0.13517248    -0.02200
Br295      Br  0.81299459  0.46386263  0.18425206    -0.00800
Br296      Br  0.74669807  0.46376143  0.12056759    -0.00900
Br297      Br  0.91528158  0.56207761  0.07449913    -0.00800
Br298      Br  0.85853491  0.49901308  0.01171834    -0.00800
C299        C  0.85765797  0.00666115  0.30891563    -0.01900
C300        C  0.85913215  0.03838789  0.27462396     0.07800
C301        C  0.83022093  0.08393036  0.26497721    -0.02000
C302        C  0.80297524  0.10281889  0.29028271    -0.02000
C303        C  0.80699188  0.08291547  0.32646675     0.07900
C304        C  0.83293976  0.03145119  0.33541622    -0.02200
Br305      Br  0.83547024  0.99566087  0.38400325    -0.00800
Br306      Br  0.88839597  0.42920960  0.32020413    -0.00900
Br307      Br  0.75852794  0.15121727  0.27509056    -0.00800
Br308      Br  0.82669105  0.11885379  0.21668952    -0.00800
C309        C  0.02443025  0.28147508  0.31436999    -0.01900
C310        C  0.02669806  0.25315957  0.27970582     0.07800
C311        C  0.05822468  0.21322180  0.27137783    -0.02000
C312        C  0.08439188  0.19589727  0.29821561    -0.02000
C313        C  0.07612508  0.20866083  0.33453183     0.07900
C314        C  0.04769755  0.25617519  0.34240442    -0.02200
Br315      Br  0.03978673  0.28555620  0.39114804    -0.00800
Br316      Br  0.99009982  0.35438596  0.32349058    -0.00900
Br317      Br  0.13291400  0.16027921  0.28518174    -0.00800
Br318      Br  0.06624358  0.18264442  0.22325189    -0.00800
C319        C  0.02775942  0.07017538  0.34442821    -0.01900
C320        C  0.06680510  0.06191289  0.34072224     0.07800
C321        C  0.08083239  0.02567850  0.31108482    -0.02000
C322        C  0.05697391  0.01230527  0.28164302    -0.02000
C323        C  0.01815128  0.02584440  0.28398436     0.07900
C324        C  0.00361936  0.04970351  0.31671554    -0.02200
Br325      Br  0.95065703  0.05180916  0.32418595    -0.00800
Br326      Br  0.00746840  0.10811418  0.38793753    -0.00900
Br327      Br  0.07826417  0.98155138  0.23748609    -0.00800
Br328      Br  0.13220065  0.99375874  0.31074198    -0.00800
C329        C  0.09596143  0.16890421  0.86334167     0.02200
C330        C  0.09262507  0.09818724  0.86535884     0.02200
C331        C  0.11442531  0.06192401  0.89027698    -0.18300
C332        C  0.14069274  0.09343141  0.91271000     0.02200
C333        C  0.14237875  0.16555334  0.91248578     0.02200
C334        C  0.12012517  0.20133660  0.88720754    -0.18300
H335        H  0.12235757  0.25483825  0.88418025     0.04200
H336        H  0.11253903  0.00771871  0.89069213     0.04200
O337        O  0.97943613  0.44800183  0.67045322    -0.74500
O338        O  0.90281642  0.46851896  0.74237310    -0.74500
O339        O  0.90314038  0.45525383  0.66999535    -0.74600
O340        O  0.97944773  0.46211650  0.74374627    -0.74600
O341        O  0.98203668  0.07257823  0.73570585    -0.74600
O342        O  0.90696645  0.06527548  0.66093803    -0.74500
O343        O  0.90576001  0.07863320  0.73369240    -0.74500
O344        O  0.98322027  0.05812096  0.66229734    -0.74600
Ni345      Ni  0.94131754  0.45451994  0.70687291     1.25400
Ni346      Ni  0.94475862  0.07261863  0.69802626     1.25400
C347        C  0.99286060  0.49863427  0.65352441     0.87700
C348        C  0.89090773  0.02753240  0.74919756     0.87600
C349        C  0.89238085  0.50861484  0.65345465     0.87600
C350        C  0.99257139  0.01934145  0.75247888     0.87800
O351        O  0.90477032  0.32393118  0.67093414    -0.74500
O352        O  0.98283831  0.31669577  0.74305488    -0.74500
O353        O  0.98140719  0.31819100  0.67010114    -0.74600
O354        O  0.90632456  0.32220437  0.74490809    -0.74600
O355        O  0.90522601  0.21094465  0.74366944    -0.74600
O356        O  0.97951435  0.20730146  0.66756546    -0.74500
O357        O  0.98130854  0.20556001  0.74058156    -0.74500
O358        O  0.90233400  0.21277696  0.66933173    -0.74600
Ni359      Ni  0.94373281  0.32416871  0.70712247     1.25400
Ni360      Ni  0.94177736  0.20516379  0.70524129     1.25400
C361        C  0.89099127  0.27025641  0.65792818     0.87700
C362        C  0.99536165  0.25933294  0.75326188     0.87600
C363        C  0.99389790  0.26307240  0.65734818     0.87600
C364        C  0.89445194  0.26634160  0.75762583     0.87800
C365        C  0.09186870  0.41153586  0.54121266     0.02200
C366        C  0.09683891  0.34155096  0.54673590     0.02200
C367        C  0.12187368  0.30697317  0.52474385    -0.18300
C368        C  0.14398385  0.33975254  0.49861924     0.02200
C369        C  0.14113810  0.41159851  0.49479479     0.02200
C370        C  0.11340277  0.44519047  0.51493078    -0.18300
H371        H  0.10881034  0.49831493  0.51111714     0.04200
H372        H  0.12548272  0.25355772  0.52921243     0.04200
C373        C  0.67285512  0.20342856  0.98556878     0.86400
C374        C  0.68810638  0.26386535  0.50641860    -0.53800
C375        C  0.70922201  0.30807228  0.98551861     0.09300
C376        C  0.71090278  0.28724349  0.94486149     0.20300
C377        C  0.65021917  0.23775680  0.95509812    -0.54500
C378        C  0.66913345  0.28436062  0.93496225     0.09400
C379        C  0.70968630  0.17569872  0.97121712    -0.54100
C380        C  0.72496298  0.21138902  0.94411703     0.10000
H381        H  0.68587189  0.26783136  0.53549614     0.14500
H382        H  0.72727793  0.32237030  0.92772476     0.00300
H383        H  0.62030242  0.22885895  0.95172341     0.14800
H384        H  0.72093014  0.12801714  0.98011723     0.14600
C385        C  0.71263800  0.04961823  0.92191752     0.86400
C386        C  0.73668407  0.51547772  0.95184575    -0.53800
C387        C  0.71854656  0.46816454  0.97249311     0.09300
C388        C  0.67675539  0.46469934  0.96386529     0.20300
C389        C  0.69697718  0.48879164  0.90170986    -0.54500
C390        C  0.67717662  0.44427978  0.92328502     0.09400
C391        C  0.67609178  0.07613373  0.93755057    -0.54100
C392        C  0.66262191  0.04016033  0.96559524     0.10000
H393        H  0.76655306  0.52535323  0.95465909     0.14500
H394        H  0.66103952  0.42870076  0.98100125     0.00300
H395        H  0.69698466  0.48520245  0.87252088     0.14800
H396        H  0.66434177  0.12366380  0.92914037     0.14600
C397        C  0.64700075  0.07703816  0.49843032     0.02200
C398        C  0.64800287  0.14967138  0.50457386     0.02200
C399        C  0.62053725  0.17641315  0.52735200    -0.18300
C400        C  0.59900799  0.13626185  0.55019743     0.02200
C401        C  0.60522812  0.06589046  0.55086091     0.02200
C402        C  0.62848078  0.03739968  0.52452351    -0.18300
H403        H  0.63153624  0.98364282  0.52421991     0.04200
H404        H  0.61604256  0.23013303  0.52757001     0.04200
C405        C  0.64917700  0.39934760  0.90611633     0.02200
C406        C  0.64835052  0.32753827  0.90824964     0.02200
C407        C  0.62261767  0.29354709  0.88623826    -0.18300
C408        C  0.59803326  0.32758534  0.86307989     0.02200
C409        C  0.59810194  0.39827955  0.86187006     0.02200
C410        C  0.62317626  0.43286872  0.88351692    -0.18300
H411        H  0.62351082  0.48712378  0.88146249     0.04200
H412        H  0.62168657  0.23925167  0.88691826     0.04200
C413        C  0.28101471  0.33158931  0.85307879     0.02200
C414        C  0.28844246  0.40083559  0.85742637     0.02200
C415        C  0.26716604  0.43755719  0.88188190    -0.18300
C416        C  0.23938371  0.40770878  0.90336520     0.02200
C417        C  0.23510857  0.33514167  0.90208597     0.02200
C418        C  0.25426839  0.30038672  0.87501862    -0.18300
H419        H  0.24955605  0.24709153  0.87214674     0.04200
H420        H  0.27256647  0.49068585  0.88445789     0.04200
C421        C  0.21658438  0.45669833  0.92642729     0.86400
C422        C  0.19330192  0.01091619  0.90665740    -0.53800
C423        C  0.17023644  0.04758791  0.92903305     0.09300
C424        C  0.17581194  0.02769072  0.97022049     0.20300
C425        C  0.23970107  0.99615546  0.95401263    -0.54500
C426        C  0.21923406  0.03743943  0.97598513     0.09400
C427        C  0.18680994  0.42025865  0.94621334    -0.54100
C428        C  0.16851922  0.45137381  0.97218237     0.10000
H429        H  0.19283812  0.01620595  0.87749429     0.14500
H430        H  0.15743840  0.05185543  0.99014020     0.00300
H431        H  0.27021711  0.99376162  0.95489352     0.14800
H432        H  0.16714826  0.39842633  0.92817943     0.14600
C433        C  0.24272196  0.15552075  0.50229628     0.02200
C434        C  0.23987850  0.08226601  0.50258491     0.02200
C435        C  0.26405043  0.04631797  0.52585720    -0.18300
C436        C  0.29016344  0.07808682  0.54782590     0.02200
C437        C  0.29250795  0.14857677  0.54768073     0.02200
C438        C  0.26921470  0.18592314  0.52493750    -0.18300
H439        H  0.27120140  0.24009808  0.52556261     0.04200
H440        H  0.26323931  0.99199079  0.52634459     0.04200
C441        C  0.21915984  0.20542151  0.97996861     0.86400
C442        C  0.24059595  0.24786119  0.95154381    -0.53800
C443        C  0.21820185  0.28975476  0.93086034     0.09300
C444        C  0.17576556  0.27892230  0.93914132     0.20300
C445        C  0.19681567  0.25746164  0.50133538    -0.54500
C446        C  0.17276448  0.29580550  0.98058738     0.09400
C447        C  0.18881474  0.16981477  0.96085795    -0.54100
C448        C  0.16937402  0.20301986  0.93597282     0.10000
H449        H  0.27097124  0.24605855  0.94873945     0.14500
H450        H  0.15559595  0.30417811  0.92139428     0.00300
H451        H  0.19790611  0.26047909  0.53054267     0.14800
H452        H  0.16999518  0.14587682  0.97906730     0.14600
O453        O  0.48402450  0.42456359  0.73747076    -0.74500
O454        O  0.40818895  0.42997517  0.66325029    -0.74500
O455        O  0.48527250  0.42747158  0.66471637    -0.74600
O456        O  0.40802589  0.42614621  0.73696939    -0.74600
O457        O  0.40758210  0.03727448  0.73974929    -0.74600
O458        O  0.48536940  0.03840947  0.66757791    -0.74500
O459        O  0.40864799  0.04121344  0.66596822    -0.74500
O460        O  0.48368983  0.03581319  0.74054878    -0.74600
Ni461      Ni  0.44615655  0.42308238  0.70048767     1.25400
Ni462      Ni  0.44620112  0.04218429  0.70328732     1.25400
C463        C  0.49632183  0.47886594  0.75116108     0.87700
C464        C  0.39605900  0.98722461  0.65232499     0.87600
C465        C  0.49921991  0.98389244  0.65530838     0.87600
C466        C  0.39619917  0.48027648  0.75135687     0.87800
O467        O  0.40711478  0.29398755  0.74032061    -0.74500
O468        O  0.48382740  0.27784419  0.66825392    -0.74500
O469        O  0.40779403  0.28338538  0.66747090    -0.74600
O470        O  0.48339075  0.28957034  0.74159040    -0.74600
O471        O  0.48079013  0.17895505  0.74918571    -0.74600
O472        O  0.40497441  0.17281997  0.67491692    -0.74500
O473        O  0.48119072  0.16741648  0.67593393    -0.74500
O474        O  0.40401183  0.18352420  0.74720722    -0.74600
Ni475      Ni  0.44573214  0.29019393  0.70437715     1.25400
Ni476      Ni  0.44287821  0.17170746  0.71206371     1.25400
C477        C  0.39176254  0.24208279  0.75441092     0.87700
C478        C  0.49409739  0.21881950  0.65932188     0.87600
C479        C  0.39393053  0.22666292  0.65897850     0.87600
C480        C  0.49424378  0.23598458  0.75780892     0.87800
C481        C  0.78421894  0.11651207  0.85476637     0.02200
C482        C  0.78995032  0.18412999  0.86400491     0.02200
C483        C  0.76946781  0.21192306  0.89252923    -0.18300
C484        C  0.74324912  0.17422505  0.91270330     0.02200
C485        C  0.73614511  0.10432477  0.90170671     0.02200
C486        C  0.75725742  0.07901962  0.87285863    -0.18300
H487        H  0.75456788  0.02722482  0.86510894     0.04200
H488        H  0.77535170  0.26313895  0.89989319     0.04200
C489        C  0.78709159  0.42702862  0.54708259     0.02200
C490        C  0.78615985  0.35647773  0.54945385     0.02200
C491        C  0.76131131  0.32125038  0.52775738    -0.18300
C492        C  0.73658990  0.35394721  0.50355095     0.02200
C493        C  0.73897686  0.42570191  0.49973847     0.02200
C494        C  0.76397846  0.46042773  0.52226653    -0.18300
H495        H  0.76513938  0.51467218  0.52096265     0.04200
H496        H  0.76088961  0.26706379  0.53027801     0.04200
C497        C  0.30304208  0.18657268  0.61032433    -0.01900
C498        C  0.31580311  0.18386516  0.57465500     0.07800
C499        C  0.35085448  0.21229358  0.56588199    -0.02000
C500        C  0.37459402  0.23496061  0.59368834    -0.02000
C501        C  0.36516931  0.22196319  0.63005811     0.07900
C502        C  0.32849222  0.19996797  0.63810286    -0.02200
Br503      Br  0.31209444  0.18799267  0.68660326    -0.00800
Br504      Br  0.25004552  0.17804335  0.62041576    -0.00900
Br505      Br  0.41904105  0.28481967  0.58190998    -0.00800
Br506      Br  0.36594144  0.22115009  0.51622436    -0.00800
C507        C  0.35269717  0.02520695  0.56130908    -0.01900
C508        C  0.31513283  0.03704583  0.57124555     0.07800
C509        C  0.30246985  0.01543670  0.60519003    -0.02000
C510        C  0.32879352  0.99789278  0.63191072    -0.02000
C511        C  0.36733793  0.99273489  0.62338870     0.07900
C512        C  0.37845624  0.00073160  0.58713307    -0.02200
Br513      Br  0.42835706  0.97733055  0.57250713    -0.00800
Br514      Br  0.36823871  0.04057493  0.51215437    -0.00900
Br515      Br  0.31152109  0.48557056  0.68011031    -0.00800
Br516      Br  0.24925208  0.00750993  0.61444849    -0.03600
C517        C  0.35589107  0.41445258  0.83904834    -0.01900
C518        C  0.31819090  0.43565113  0.83608894     0.07800
C519        C  0.30892444  0.48653571  0.81079576    -0.02000
C520        C  0.33572499  0.50667804  0.78496262    -0.02000
C521        C  0.37094783  0.47429364  0.78320078     0.07900
C522        C  0.38178390  0.43194318  0.81201629    -0.02200
Br523      Br  0.43274998  0.40060256  0.81531296    -0.00800
Br524      Br  0.37228161  0.36421242  0.88091360    -0.00900
Br525      Br  0.32428155  0.07996681  0.75355616    -0.00800
Br526      Br  0.25934721  0.02702733  0.81000929    -0.00800
C527        C  0.30026066  0.31276797  0.78961906    -0.01900
C528        C  0.30168311  0.29170272  0.82576101     0.07800
C529        C  0.32662838  0.23929026  0.83575464    -0.02000
C530        C  0.35386044  0.21693993  0.81092925    -0.02000
C531        C  0.35827359  0.25139587  0.77767750     0.07900
C532        C  0.32996517  0.29695181  0.76648887    -0.02200
Br533      Br  0.33135142  0.33900899  0.71972164    -0.00800
Br534      Br  0.25717346  0.36239150  0.77205850    -0.00900
Br535      Br  0.38451502  0.14021250  0.82329286    -0.00800
Br536      Br  0.32543168  0.20029647  0.88363937    -0.00800
C537        C  0.58685680  0.43050507  0.79807739    -0.01900
C538        C  0.57604818  0.43577476  0.83421500     0.07800
C539        C  0.54359952  0.47331272  0.84278151    -0.02000
C540        C  0.51944124  0.49565465  0.81480836    -0.02000
C541        C  0.52596201  0.47436953  0.77915296     0.07900
C542        C  0.56069690  0.44422361  0.77085135    -0.02200
Br543      Br  0.57302617  0.92061207  0.72259784    -0.00800
Br544      Br  0.63845532  0.41057870  0.78620089    -0.00900
Br545      Br  0.47805762  0.55474914  0.82529692    -0.00800
Br546      Br  0.53266217  0.49463181  0.89220515    -0.00800
C547        C  0.58614729  0.25809045  0.80840570    -0.01900
C548        C  0.57246697  0.28856434  0.83984539     0.07800
C549        C  0.53389517  0.28507542  0.84784898    -0.02000
C550        C  0.50886409  0.25897621  0.82234387    -0.02000
C551        C  0.52166344  0.24197900  0.78773300     0.07900
C552        C  0.56069629  0.23876162  0.78147030    -0.02200
Br553      Br  0.57976220  0.21040681  0.73607256    -0.00800
Br554      Br  0.63935150  0.24125708  0.80262521    -0.00900
Br555      Br  0.45774945  0.24295813  0.83556712    -0.00800
Br556      Br  0.51565738  0.31413728  0.89406014    -0.00800
C557        C  0.58120083  0.21699301  0.59973174    -0.01900
C558        C  0.57054430  0.16890076  0.57394835     0.07800
C559        C  0.53264130  0.14885095  0.57229338    -0.02000
C560        C  0.50782929  0.16537950  0.60027388    -0.02000
C561        C  0.51943239  0.20797108  0.62814106     0.07900
C562        C  0.55518192  0.23769273  0.62597884    -0.02200
Br563      Br  0.56908709  0.30630147  0.65870249    -0.00800
Br564      Br  0.63159995  0.25321051  0.60091157    -0.00900
Br565      Br  0.45760090  0.13038440  0.59984150    -0.00800
Br566      Br  0.51409255  0.10220168  0.53068470    -0.00800
C567        C  0.59178491  0.04218696  0.61551837    -0.01900
C568        C  0.58727605  0.02332988  0.57944772     0.07800
C569        C  0.56069001  0.97312029  0.57150769    -0.02000
C570        C  0.53486576  0.95251904  0.59835070    -0.02000
C571        C  0.53262721  0.98789809  0.63110939     0.07900
C572        C  0.56270656  0.03041738  0.64019921    -0.02200
Br573      Br  0.56419982  0.07520441  0.68560444    -0.00800
Br574      Br  0.63772852  0.08457674  0.63049427    -0.00900
Br575      Br  0.50342882  0.37655570  0.58974875    -0.00800
Br576      Br  0.55742860  0.43526005  0.52395343    -0.00800
C577        C  0.05678803  0.30887170  0.63925070    -0.01900
C578        C  0.02623533  0.26645368  0.63154713     0.07800
C579        C  0.02665518  0.23223555  0.59839804    -0.02000
C580        C  0.05066052  0.25399582  0.57025666    -0.02000
C581        C  0.07725627  0.30485797  0.57676782     0.07900
C582        C  0.08357304  0.32399390  0.61259869    -0.02200
Br583      Br  0.13035947  0.36582405  0.62539103    -0.00800
Br584      Br  0.06313920  0.34456695  0.68663479    -0.00900
Br585      Br  0.04615058  0.21502671  0.52305282    -0.00800
Br586      Br  0.99715329  0.15340543  0.59189166    -0.00800
C587        C  0.83362430  0.29279250  0.79132488    -0.01900
C588        C  0.86981502  0.26356736  0.79022296     0.07800
C589        C  0.88236631  0.22798990  0.82091593    -0.02000
C590        C  0.85690521  0.20846015  0.84795501    -0.02000
C591        C  0.81858301  0.22467669  0.84433218     0.07900
C592        C  0.80776153  0.27289255  0.81824162    -0.02200
Br593      Br  0.75758958  0.31026924  0.81895203    -0.00800
Br594      Br  0.82029180  0.36322314  0.75851786    -0.00900
Br595      Br  0.87428268  0.16126392  0.89040330    -0.00800
Br596      Br  0.93504092  0.21364864  0.82777799    -0.00800
C597        C  0.79785218  0.30005001  0.60929717    -0.01900
C598        C  0.81098609  0.31900073  0.57495519     0.07800
C599        C  0.84858086  0.30557611  0.56580591    -0.02000
C600        C  0.87377852  0.28183894  0.59236362    -0.02000
C601        C  0.86236167  0.27630287  0.62867425     0.07900
C602        C  0.82376162  0.28302600  0.63663674    -0.02200
Br603      Br  0.80584426  0.27129506  0.68470367    -0.00800
Br604      Br  0.74453549  0.29352695  0.61818296    -0.00900
Br605      Br  0.92304914  0.25409039  0.57840717    -0.00800
Br606      Br  0.86490061  0.31714917  0.51658005    -0.00800
C607        C  0.05365011  0.51422894  0.61847046    -0.01900
C608        C  0.01731212  0.48660955  0.62164096     0.07800
C609        C  0.00372428  0.44618491  0.59357265    -0.02000
C610        C  0.02668755  0.43072098  0.56401992    -0.02000
C611        C  0.06473605  0.44948524  0.56395632     0.07900
C612        C  0.07752713  0.49534329  0.58989263    -0.02200
Br613      Br  0.12823822  0.52979865  0.58760372    -0.00800
Br614      Br  0.07202940  0.07430761  0.65406503    -0.00900
Br615      Br  0.00616799  0.38416332  0.52322559    -0.00800
Br616      Br  0.95389443  0.40986468  0.59569474    -0.00800
C617        C  0.79929866  0.46975802  0.60847794    -0.01900
C618        C  0.81044531  0.46609579  0.57237374     0.07800
C619        C  0.84535975  0.49304405  0.56203069    -0.02000
C620        C  0.87048604  0.51561957  0.58870514    -0.02000
C621        C  0.86257412  0.50345016  0.62553835     0.07900
C622        C  0.82623593  0.48159246  0.63517143    -0.02200
Br623      Br  0.81299344  0.46388230  0.68425153    -0.00800
Br624      Br  0.74669798  0.46379615  0.62056483    -0.00900
Br625      Br  0.91529621  0.56203053  0.57449314    -0.00800
Br626      Br  0.85854741  0.49895293  0.51171753    -0.00800
C627        C  0.85766160  0.00668005  0.80891472    -0.01900
C628        C  0.85913570  0.03840566  0.77462269     0.07800
C629        C  0.83022428  0.08394696  0.76497489    -0.02000
C630        C  0.80297688  0.10283338  0.79027925    -0.02000
C631        C  0.80699098  0.08292737  0.82646324     0.07900
C632        C  0.83294017  0.03146583  0.83541374    -0.02200
Br633      Br  0.83546797  0.99567338  0.88400038    -0.00800
Br634      Br  0.88840595  0.42923762  0.82020655    -0.00900
Br635      Br  0.75853086  0.15123329  0.77508519    -0.00800
Br636      Br  0.82669653  0.11887186  0.71668710    -0.00800
C637        C  0.02444128  0.28149090  0.81436703    -0.01900
C638        C  0.02670317  0.25316829  0.77970435     0.07800
C639        C  0.05822649  0.21322348  0.77137489    -0.02000
C640        C  0.08439565  0.19589833  0.79821065    -0.02000
C641        C  0.07613343  0.20866900  0.83452703     0.07900
C642        C  0.04771012  0.25619115  0.84240021    -0.02200
Br643      Br  0.03980671  0.28558323  0.89114295    -0.00800
Br644      Br  0.99011758  0.35441194  0.82348702    -0.00900
Br645      Br  0.13291456  0.16027079  0.78517338    -0.00800
Br646      Br  0.06623831  0.18263799  0.72324947    -0.00800
C647        C  0.02776316  0.07019402  0.84442640    -0.01900
C648        C  0.06680839  0.06192201  0.84072149     0.07800
C649        C  0.08083371  0.02568236  0.81108513    -0.02000
C650        C  0.05697493  0.01231280  0.78164309    -0.02000
C651        C  0.01815316  0.02586020  0.78398339     0.07900
C652        C  0.00362213  0.04972719  0.81671327    -0.02200
Br653      Br  0.95065931  0.05185631  0.82417989    -0.00800
Br654      Br  0.00747436  0.10814035  0.88793473    -0.00900
Br655      Br  0.07826445  0.98155850  0.73748589    -0.00800
Br656      Br  0.13220008  0.99375281  0.81074330    -0.00800
C657        C  0.09595167  0.66889217  0.36334747     0.02200
C658        C  0.09261766  0.59817502  0.36536388     0.02200
C659        C  0.11441937  0.56191284  0.39028120    -0.18300
C660        C  0.14068763  0.59342113  0.41271290     0.02200
C661        C  0.14237233  0.66554330  0.41248932     0.02200
C662        C  0.12011519  0.70132623  0.38721344    -0.18300
H663        H  0.12234482  0.75482870  0.38418810     0.04200
H664        H  0.11253418  0.50770742  0.39069600     0.04200
O665        O  0.97943250  0.94800616  0.17044607    -0.74500
O666        O  0.90281873  0.96850679  0.24237434    -0.74500
O667        O  0.90313621  0.95525165  0.16999549    -0.74600
O668        O  0.97945055  0.96211086  0.24374035    -0.74600
O669        O  0.98203177  0.57256285  0.23571472    -0.74600
O670        O  0.90696777  0.56527611  0.16094047    -0.74500
O671        O  0.90575442  0.57862039  0.23369507    -0.74500
O672        O  0.98322142  0.55811870  0.16230523    -0.74600
Ni673      Ni  0.94131707  0.95451592  0.20686979     1.25400
Ni674      Ni  0.94475675  0.57261113  0.19803204     1.25400
C675        C  0.99285488  0.99864182  0.15351833     0.87700
C676        C  0.89090080  0.52751732  0.24919681     0.87600
C677        C  0.89237405  0.00861408  0.15345755     0.87600
C678        C  0.99256584  0.51932254  0.25248492     0.87800
O679        O  0.90476749  0.82392665  0.17093214    -0.74500
O680        O  0.98283318  0.81668734  0.24305532    -0.74500
O681        O  0.98140407  0.81819311  0.17010076    -0.74600
O682        O  0.90631979  0.82218984  0.24490585    -0.74600
O683        O  0.90522412  0.71093026  0.24366271    -0.74600
O684        O  0.97951421  0.70730369  0.16756095    -0.74500
O685        O  0.98130694  0.70555167  0.24057705    -0.74500
O686        O  0.90233409  0.71277237  0.16932556    -0.74600
Ni687      Ni  0.94372885  0.82416241  0.20712154     1.25400
Ni688      Ni  0.94177664  0.70515749  0.20523562     1.25400
C689        C  0.89099026  0.77025230  0.15792388     0.87700
C690        C  0.99535721  0.75932405  0.25326103     0.87600
C691        C  0.99389615  0.76307713  0.15734571     0.87600
C692        C  0.89444867  0.76632438  0.25762123     0.87800
C693        C  0.09186223  0.91154546  0.04120542     0.02200
C694        C  0.09683351  0.84156126  0.04673034     0.02200
C695        C  0.12186984  0.80698314  0.02473992    -0.18300
C696        C  0.14398142  0.83976194  0.99861612     0.02200
C697        C  0.14113559  0.91160786  0.99479098     0.02200
C698        C  0.11339786  0.94519958  0.01492430    -0.18300
H699        H  0.10880549  0.99832389  0.01110983     0.04200
H700        H  0.12547948  0.75356820  0.02920967     0.04200
C701        C  0.67285133  0.70342213  0.48556733     0.86400
C702        C  0.68810369  0.76386916  0.00641655    -0.53800
C703        C  0.70921831  0.80806487  0.48552089     0.09300
C704        C  0.71090278  0.78723741  0.44486363     0.20300
C705        C  0.65021819  0.73775093  0.45509502    -0.54500
C706        C  0.66913432  0.78435503  0.43496102     0.09400
C707        C  0.70968396  0.67569251  0.47121851    -0.54100
C708        C  0.72496299  0.71138293  0.44411962     0.10000
H709        H  0.68586991  0.76783457  0.03549417     0.14500
H710        H  0.72727959  0.82236458  0.42772860     0.00300
H711        H  0.62030170  0.72885340  0.45171788     0.14800
H712        H  0.72092732  0.62801122  0.48011963     0.14600
C713        C  0.71263840  0.54961284  0.42191889     0.86400
C714        C  0.73668552  0.01546902  0.45185009    -0.53800
C715        C  0.71854658  0.96815553  0.47249628     0.09300
C716        C  0.67675561  0.96469318  0.46386683     0.20300
C717        C  0.69697973  0.98878732  0.40171247    -0.54500
C718        C  0.67717802  0.94427529  0.42328623     0.09400
C719        C  0.67609167  0.57612754  0.43755065    -0.54100
C720        C  0.66262151  0.54015452  0.46559527     0.10000
H721        H  0.76655451  0.02534344  0.45466466     0.14500
H722        H  0.66103813  0.92869474  0.48100149     0.00300
H723        H  0.69698830  0.98519919  0.37252344     0.14800
H724        H  0.66434125  0.62365672  0.42913944     0.14600
C725        C  0.64699663  0.57704252  0.99842726     0.02200
C726        C  0.64799924  0.64967563  0.00457107     0.02200
C727        C  0.62053280  0.67641818  0.02734783    -0.18300
C728        C  0.59900256  0.63626808  0.05019279     0.02200
C729        C  0.60522122  0.56589628  0.05085629     0.02200
C730        C  0.62847393  0.53740428  0.02451907    -0.18300
H731        H  0.63152773  0.48364712  0.02421479     0.04200
H732        H  0.61603846  0.73013818  0.02756539     0.04200
C733        C  0.64917970  0.89934305  0.40611532     0.02200
C734        C  0.64835362  0.82753357  0.40824738     0.02200
C735        C  0.62262243  0.79354279  0.38623399    -0.18300
C736        C  0.59803872  0.82758159  0.36307529     0.02200
C737        C  0.59810756  0.89827554  0.36186583     0.02200
C738        C  0.62318058  0.93286448  0.38351425    -0.18300
H739        H  0.62351484  0.98711958  0.38146046     0.04200
H740        H  0.62169138  0.73924736  0.38691335     0.04200
C741        C  0.28101217  0.83157861  0.35307783     0.02200
C742        C  0.28844093  0.90082436  0.35742579     0.02200
C743        C  0.26716383  0.93754634  0.38188068    -0.18300
C744        C  0.23938052  0.90769837  0.40336319     0.02200
C745        C  0.23510483  0.83513116  0.40208382     0.02200
C746        C  0.25426477  0.80037643  0.37501653    -0.18300
H747        H  0.24955202  0.74708145  0.37214410     0.04200
H748        H  0.27256455  0.99067479  0.38445688     0.04200
C749        C  0.21658136  0.95668862  0.42642511     0.86400
C750        C  0.19329660  0.51090615  0.40665652    -0.53800
C751        C  0.17023296  0.54757809  0.42903385     0.09300
C752        C  0.17581175  0.52768066  0.47022084     0.20300
C753        C  0.23969926  0.49614412  0.45400848    -0.54500
C754        C  0.21923423  0.53742839  0.47598231     0.09400
C755        C  0.18680718  0.92024853  0.44621120    -0.54100
C756        C  0.16851683  0.95136365  0.47218048     0.10000
H757        H  0.19283053  0.51619583  0.37749347     0.14500
H758        H  0.15744006  0.55184513  0.49014209     0.00300
H759        H  0.27021536  0.49374948  0.45488736     0.14800
H760        H  0.16714621  0.89841441  0.42817790     0.14600
C761        C  0.24272144  0.65553147  0.00229900     0.02200
C762        C  0.23987984  0.58227649  0.00258706     0.02200
C763        C  0.26405258  0.54632938  0.02585923    -0.18300
C764        C  0.29016477  0.57809953  0.04782830     0.02200
C765        C  0.29250743  0.64858974  0.04768298     0.02200
C766        C  0.26921316  0.68593494  0.02494047    -0.18300
H767        H  0.27119865  0.74011007  0.02556601     0.04200
H768        H  0.26324260  0.49200213  0.02634634     0.04200
C769        C  0.21915960  0.70540947  0.47996662     0.86400
C770        C  0.24059396  0.74784840  0.45154037    -0.53800
C771        C  0.21819891  0.78974324  0.43085850     0.09300
C772        C  0.17576294  0.77891215  0.43914239     0.20300
C773        C  0.19681341  0.75747081  0.00133597    -0.54500
C774        C  0.17276557  0.79579527  0.48058879     0.09400
C775        C  0.18881235  0.66980407  0.46085820    -0.54100
C776        C  0.16936996  0.70300978  0.43597438     0.10000
H777        H  0.27096906  0.74604492  0.44873423     0.14500
H778        H  0.15559211  0.80416798  0.42139671     0.00300
H779        H  0.19790173  0.76048798  0.03054333     0.14800
H780        H  0.16999380  0.64586708  0.47906896     0.14600
O781        O  0.48402707  0.92456173  0.23746809    -0.74500
O782        O  0.40818957  0.92997616  0.16324882    -0.74500
O783        O  0.48527367  0.92747552  0.16471404    -0.74600
O784        O  0.40802799  0.92614143  0.23696832    -0.74600
O785        O  0.40758092  0.53728000  0.23975435    -0.74600
O786        O  0.48537009  0.53841559  0.16758411    -0.74500
O787        O  0.40864841  0.54122351  0.16597411    -0.74500
O788        O  0.48368896  0.53581390  0.24055563    -0.74600
Ni789      Ni  0.44615816  0.92308197  0.20048567     1.25400
Ni790      Ni  0.44620113  0.54218999  0.20329344     1.25400
C791        C  0.49632400  0.97886336  0.25115952     0.87700
C792        C  0.39605831  0.48723612  0.15233020     0.87600
C793        C  0.49921927  0.48389881  0.15531270     0.87600
C794        C  0.39620020  0.98026984  0.25135697     0.87800
O795        O  0.40711542  0.79399248  0.24032160    -0.74500
O796        O  0.48382637  0.77785199  0.16825251    -0.74500
O797        O  0.40779361  0.78339689  0.16747147    -0.74600
O798        O  0.48339177  0.78957381  0.24158950    -0.74600
O799        O  0.48079067  0.67895822  0.24918258    -0.74600
O800        O  0.40497265  0.67283122  0.17491563    -0.74500
O801        O  0.48118834  0.66742395  0.17593028    -0.74500
O802        O  0.40401238  0.68352897  0.24720626    -0.74600
Ni803      Ni  0.44573225  0.79020096  0.20437712     1.25400
Ni804      Ni  0.44287741  0.67171419  0.21206139     1.25400
C805        C  0.39176344  0.74208697  0.25441136     0.87700
C806        C  0.49409498  0.71882735  0.15931874     0.87600
C807        C  0.39392942  0.72667560  0.15897827     0.87600
C808        C  0.49424499  0.73598687  0.25780664     0.87800
C809        C  0.78422159  0.61650317  0.35477104     0.02200
C810        C  0.78995420  0.68412077  0.36400981     0.02200
C811        C  0.76947111  0.71191521  0.39253363    -0.18300
C812        C  0.74325052  0.67421875  0.41270645     0.02200
C813        C  0.73614579  0.60431915  0.40170904     0.02200
C814        C  0.75725894  0.57901270  0.37286219    -0.18300
H815        H  0.75456863  0.52721825  0.36511210     0.04200
H816        H  0.77535542  0.76313082  0.39989786     0.04200
C817        C  0.78708723  0.92702822  0.04708315     0.02200
C818        C  0.78615872  0.85647651  0.04945049     0.02200
C819        C  0.76131085  0.82125050  0.02775267    -0.18300
C820        C  0.73658822  0.85394911  0.00354811     0.02200
C821        C  0.73897454  0.92570401  0.99973711     0.02200
C822        C  0.76397421  0.96042883  0.02226737    -0.18300
H823        H  0.76513372  0.01467353  0.02096523     0.04200
H824        H  0.76089013  0.76706354  0.03027114     0.04200
C825        C  0.30304126  0.68658287  0.11032628    -0.01900
C826        C  0.31580144  0.68387999  0.07465670     0.07800
C827        C  0.35085119  0.71231348  0.06588285    -0.02000
C828        C  0.37459129  0.73497941  0.09368888    -0.02000
C829        C  0.36516766  0.72197884  0.13005866     0.07900
C830        C  0.32849161  0.69997935  0.13810411    -0.02200
Br831      Br  0.31209633  0.68799393  0.18660452    -0.00800
Br832      Br  0.25004577  0.67803924  0.12041958    -0.00900
Br833      Br  0.41903924  0.78483526  0.08190974    -0.00800
Br834      Br  0.36593520  0.72117660  0.01622456    -0.00800
C835        C  0.35269976  0.52522434  0.06131448    -0.01900
C836        C  0.31513443  0.53706028  0.07124910     0.07800
C837        C  0.30247033  0.51544841  0.10519293    -0.02000
C838        C  0.32879317  0.49790773  0.13191508    -0.02000
C839        C  0.36733771  0.49274922  0.12339398     0.07900
C840        C  0.37845713  0.50074487  0.08713884    -0.02200
Br841      Br  0.42835656  0.47733144  0.07251408    -0.00800
Br842      Br  0.36824588  0.54060169  0.01216208    -0.00900
Br843      Br  0.31152079  0.98556549  0.18011232    -0.00800
Br844      Br  0.24925270  0.50750865  0.11444799    -0.03600
C845        C  0.35589026  0.91444079  0.33904761    -0.01900
C846        C  0.31818998  0.93563944  0.33608826     0.07800
C847        C  0.30892383  0.98652391  0.31079489    -0.02000
C848        C  0.33572453  0.00666661  0.28496185    -0.02000
C849        C  0.37094784  0.97428358  0.28320038     0.07900
C850        C  0.38178352  0.93193257  0.31201587    -0.02200
Br851      Br  0.43274986  0.90059389  0.31531321    -0.00800
Br852      Br  0.37228065  0.86420030  0.38091285    -0.00900
Br853      Br  0.32428102  0.57998202  0.25356417    -0.00800
Br854      Br  0.25934354  0.52703400  0.31001140    -0.00800
C855        C  0.30025785  0.81275910  0.28961861    -0.01900
C856        C  0.30168032  0.79169255  0.32576016     0.07800
C857        C  0.32662709  0.73928287  0.33575387    -0.02000
C858        C  0.35386194  0.71693949  0.31092958    -0.02000
C859        C  0.35827458  0.75139764  0.27767834     0.07900
C860        C  0.32996410  0.79694915  0.26648931    -0.02200
Br861      Br  0.33134982  0.83900886  0.21972303    -0.00800
Br862      Br  0.25716854  0.86237715  0.27205824    -0.00900
Br863      Br  0.38451996  0.64021710  0.32329387    -0.00800
Br864      Br  0.32542698  0.70028171  0.38363678    -0.00800
C865        C  0.58686144  0.93050575  0.29807374    -0.01900
C866        C  0.57605302  0.93577129  0.33421161     0.07800
C867        C  0.54360279  0.97330348  0.34277944    -0.02000
C868        C  0.51944358  0.99564605  0.31480723    -0.02000
C869        C  0.52596485  0.97436608  0.27915096     0.07900
C870        C  0.56070070  0.94422405  0.27084827    -0.02200
Br871      Br  0.57302444  0.42061514  0.22260417    -0.00800
Br872      Br  0.63846041  0.91058404  0.28619639    -0.00900
Br873      Br  0.47805755  0.05473352  0.32529873    -0.00800
Br874      Br  0.53266429  0.99461252  0.39220414    -0.00800
C875        C  0.58615087  0.75809235  0.30839967    -0.01900
C876        C  0.57247188  0.78856143  0.33984107     0.07800
C877        C  0.53390080  0.78506790  0.34784709    -0.02000
C878        C  0.50886844  0.75897238  0.32234198    -0.02000
C879        C  0.52166604  0.74197907  0.28772991     0.07900
C880        C  0.56069861  0.73876330  0.28146543    -0.02200
Br881      Br  0.57976251  0.71040790  0.23606732    -0.00800
Br882      Br  0.63935513  0.74126393  0.30261610    -0.00900
Br883      Br  0.45775459  0.74295357  0.33556697    -0.00800
Br884      Br  0.51566618  0.81411600  0.39406201    -0.00800
C885        C  0.58119680  0.71700093  0.09972675    -0.01900
C886        C  0.57053954  0.66890883  0.07394355     0.07800
C887        C  0.53263631  0.64886091  0.07228856    -0.02000
C888        C  0.50782490  0.66538880  0.10026967    -0.02000
C889        C  0.51942887  0.70797946  0.12813704     0.07900
C890        C  0.55517853  0.73770037  0.12597444    -0.02200
Br891      Br  0.56908505  0.80630660  0.15869903    -0.00800
Br892      Br  0.63159558  0.75322035  0.10090500    -0.00900
Br893      Br  0.45759641  0.63039406  0.09983774    -0.00800
Br894      Br  0.51408654  0.60221781  0.03067826    -0.00800
C895        C  0.59178106  0.54219494  0.11551474    -0.01900
C896        C  0.58726929  0.52333786  0.07944438     0.07800
C897        C  0.56068244  0.47312843  0.07150654    -0.02000
C898        C  0.53486105  0.45252586  0.09835197    -0.02000
C899        C  0.53262497  0.48790451  0.13111100     0.07900
C900        C  0.56270518  0.53042369  0.14019823    -0.02200
Br901      Br  0.56420384  0.57520483  0.18560458    -0.00800
Br902      Br  0.63772607  0.58458484  0.13048689    -0.00900
Br903      Br  0.50342830  0.87657102  0.08974461    -0.00800
Br904      Br  0.55744276  0.93525836  0.02395753    -0.00800
C905        C  0.05678303  0.80888764  0.13924600    -0.01900
C906        C  0.02623262  0.76646369  0.13154391     0.07800
C907        C  0.02665442  0.73224137  0.09839615    -0.02000
C908        C  0.05065823  0.75400282  0.07025386    -0.02000
C909        C  0.07725151  0.80486990  0.07676328     0.07900
C910        C  0.08356746  0.82401036  0.11259359    -0.02200
Br911      Br  0.13035316  0.86584351  0.12538539    -0.00800
Br912      Br  0.06313283  0.84458807  0.18662900    -0.00900
Br913      Br  0.04614994  0.71502734  0.02305149    -0.00800
Br914      Br  0.99715790  0.65340371  0.09189325    -0.00800
C915        C  0.83362568  0.79277850  0.29132702    -0.01900
C916        C  0.86981380  0.76354404  0.29021939     0.07800
C917        C  0.88236631  0.72795655  0.32090852    -0.02000
C918        C  0.85690844  0.70843574  0.34795205    -0.02000
C919        C  0.81858724  0.72466546  0.34433625     0.07900
C920        C  0.80776566  0.77288494  0.31824757    -0.02200
Br921      Br  0.75759621  0.81027195  0.31896377    -0.00800
Br922      Br  0.82029108  0.86320496  0.25851827    -0.00900
Br923      Br  0.87428914  0.66122935  0.39039585    -0.00800
Br924      Br  0.93503963  0.71357766  0.32775663    -0.00800
C925        C  0.79785184  0.80003513  0.10929009    -0.01900
C926        C  0.81098637  0.81899761  0.07495011     0.07800
C927        C  0.84858290  0.80558400  0.06580207    -0.02000
C928        C  0.87378042  0.78184447  0.09235947    -0.02000
C929        C  0.86236181  0.77629963  0.12866920     0.07900
C930        C  0.82376103  0.78301414  0.13663041    -0.02200
Br931      Br  0.80584286  0.77128101  0.18469718    -0.00800
Br932      Br  0.74453526  0.79349194  0.11817189    -0.00900
Br933      Br  0.92305380  0.75410569  0.07840448    -0.00800
Br934      Br  0.86490579  0.81717672  0.01657852    -0.00800
C935        C  0.05364314  0.01424140  0.11846205    -0.01900
C936        C  0.01730501  0.98662257  0.12163298     0.07800
C937        C  0.00371642  0.94619993  0.09356422    -0.02000
C938        C  0.02668027  0.93073122  0.06401246    -0.02000
C939        C  0.06472896  0.94949548  0.06394844     0.07900
C940        C  0.07751995  0.99535495  0.08988413    -0.02200
Br941      Br  0.12823155  0.02980842  0.08759544    -0.00800
Br942      Br  0.07203378  0.57429262  0.15407828    -0.00900
Br943      Br  0.00616131  0.88416411  0.02322098    -0.00800
Br944      Br  0.95388356  0.90989240  0.09568404    -0.00800
C945        C  0.79929267  0.96974346  0.10848211    -0.01900
C946        C  0.81043829  0.96609415  0.07237711     0.07800
C947        C  0.84534897  0.99305831  0.06203471    -0.02000
C948        C  0.87047401  0.01563466  0.08870998    -0.02000
C949        C  0.86256558  0.00345093  0.12554258     0.07900
C950        C  0.82622970  0.98158083  0.13517555    -0.02200
Br951      Br  0.81298951  0.96386405  0.18425548    -0.00800
Br952      Br  0.74669300  0.96376274  0.12057027    -0.00900
Br953      Br  0.91527710  0.06206879  0.07449996    -0.00800
Br954      Br  0.85853336  0.99898723  0.01172132    -0.00800
C955        C  0.85765280  0.50665773  0.30891193    -0.01900
C956        C  0.85912751  0.53838717  0.27462108     0.07800
C957        C  0.83021751  0.58393324  0.26497570    -0.02000
C958        C  0.80297382  0.60282478  0.29028266    -0.02000
C959        C  0.80699056  0.58291742  0.32646617     0.07900
C960        C  0.83293649  0.53144879  0.33541373    -0.02200
Br961      Br  0.83546810  0.49565491  0.38400001    -0.00800
Br962      Br  0.88840431  0.92921843  0.32021069    -0.00900
Br963      Br  0.75852947  0.65123535  0.27509343    -0.00800
Br964      Br  0.82668566  0.61885536  0.21668775    -0.00800
C965        C  0.02442540  0.78146724  0.31437285    -0.01900
C966        C  0.02669548  0.75315851  0.27970722     0.07800
C967        C  0.05822323  0.71322467  0.27137807    -0.02000
C968        C  0.08438901  0.69589393  0.29821620    -0.02000
C969        C  0.07612208  0.70865511  0.33453286     0.07900
C970        C  0.04769340  0.75616659  0.34240652    -0.02200
Br971      Br  0.03978218  0.78554274  0.39115099    -0.00800
Br972      Br  0.99009069  0.85437056  0.32349638    -0.00900
Br973      Br  0.13290957  0.66026958  0.28518206    -0.00800
Br974      Br  0.06624620  0.68266548  0.22324904    -0.00800
C975        C  0.02775682  0.57016943  0.34443284    -0.01900
C976        C  0.06680249  0.56190773  0.34072609     0.07800
C977        C  0.08082912  0.52566993  0.31108962    -0.02000
C978        C  0.05697006  0.51229451  0.28164854    -0.02000
C979        C  0.01814761  0.52583516  0.28399000     0.07900
C980        C  0.00361625  0.54969369  0.31672143    -0.02200
Br981      Br  0.95065439  0.55178577  0.32419522    -0.00800
Br982      Br  0.00746652  0.60811219  0.38794136    -0.00900
Br983      Br  0.07825870  0.48153074  0.23749303    -0.00800
Br984      Br  0.13219707  0.49374839  0.31074727    -0.00800
C985        C  0.09595994  0.66890024  0.86334255     0.02200
C986        C  0.09262295  0.59818356  0.86536152     0.02200
C987        C  0.11442336  0.56192186  0.89028014    -0.18300
C988        C  0.14069175  0.59343036  0.91271163     0.02200
C989        C  0.14237827  0.66555227  0.91248604     0.02200
C990        C  0.12012443  0.70133424  0.88720743    -0.18300
H991        H  0.12235703  0.75483588  0.88417962     0.04200
H992        H  0.11253666  0.50771661  0.89069664     0.04200
O993        O  0.97943500  0.94800586  0.67044912    -0.74500
O994        O  0.90282063  0.96851979  0.74237486    -0.74500
O995        O  0.90313887  0.95525284  0.66999684    -0.74600
O996        O  0.97945198  0.96212228  0.74374223    -0.74600
O997        O  0.98203450  0.57257266  0.73571143    -0.74600
O998        O  0.90697057  0.56527642  0.66093743    -0.74500
O999        O  0.90575752  0.57863241  0.73369157    -0.74500
O1000       O  0.98322404  0.55811703  0.66230286    -0.74600
Ni1001     Ni  0.94131911  0.95452233  0.70687166     1.25400
Ni1002     Ni  0.94475955  0.57261632  0.69802878     1.25400
C1003       C  0.99285743  0.99863851  0.65351893     0.87700
C1004       C  0.89090359  0.52753176  0.74919537     0.87600
C1005       C  0.89237721  0.00861290  0.65345649     0.87600
C1006       C  0.99256767  0.51933457  0.75248424     0.87800
O1007       O  0.90476647  0.82393020  0.67093685    -0.74500
O1008       O  0.98283590  0.81669546  0.74305641    -0.74500
O1009       O  0.98140374  0.81819401  0.67010245    -0.74600
O1010       O  0.90632275  0.82220213  0.74491008    -0.74600
O1011       O  0.90522512  0.71094237  0.74367031    -0.74600
O1012       O  0.97951295  0.70730451  0.66756581    -0.74500
O1013       O  0.98130742  0.70555956  0.74058173    -0.74500
O1014       O  0.90233231  0.71277585  0.66933312    -0.74600
Ni1015     Ni  0.94372995  0.82416857  0.70712428     1.25400
Ni1016     Ni  0.94177614  0.70516356  0.70524187     1.25400
C1017       C  0.89098792  0.77025498  0.65793088     0.87700
C1018       C  0.99535963  0.75933245  0.75326292     0.87600
C1019       C  0.99389570  0.76307662  0.65734916     0.87600
C1020       C  0.89445109  0.76633877  0.75762747     0.87800
C1021       C  0.09186626  0.91153549  0.54120963     0.02200
C1022       C  0.09683943  0.84155223  0.54673675     0.02200
C1023       C  0.12187567  0.80697423  0.52474622    -0.18300
C1024       C  0.14398424  0.83975227  0.49861963     0.02200
C1025       C  0.14113672  0.91159757  0.49479284     0.02200
C1026       C  0.11339962  0.94518899  0.51492671    -0.18300
H1027       H  0.10880552  0.99831251  0.51111074     0.04200
H1028       H  0.12548670  0.75355991  0.52921712     0.04200
C1029       C  0.67285162  0.70342745  0.98556696     0.86400
C1030       C  0.68810208  0.76386367  0.50641763    -0.53800
C1031       C  0.70921879  0.80807043  0.98551863     0.09300
C1032       C  0.71090108  0.78724269  0.94486149     0.20300
C1033       C  0.65021701  0.73775639  0.95509566    -0.54500
C1034       C  0.66913215  0.78436058  0.93496085     0.09400
C1035       C  0.70968337  0.67569768  0.97121656    -0.54100
C1036       C  0.72496113  0.71138820  0.94411713     0.10000
H1037       H  0.68586668  0.76782894  0.53549511     0.14500
H1038       H  0.72727698  0.82236973  0.92772557     0.00300
H1039       H  0.62030037  0.72885879  0.95171979     0.14800
H1040       H  0.72092706  0.62801635  0.98011722     0.14600
C1041       C  0.71263674  0.54961858  0.92191623     0.86400
C1042       C  0.73668460  0.01547477  0.95184705    -0.53800
C1043       C  0.71854605  0.96816142  0.97249370     0.09300
C1044       C  0.67675494  0.96469878  0.96386517     0.20300
C1045       C  0.69697769  0.98879302  0.90171030    -0.54500
C1046       C  0.67717637  0.94428095  0.92328452     0.09400
C1047       C  0.67609025  0.57613308  0.93754908    -0.54100
C1048       C  0.66262086  0.54015992  0.96559411     0.10000
H1049       H  0.76655363  0.02534924  0.95466119     0.14500
H1050       H  0.66103794  0.92870025  0.98100020     0.00300
H1051       H  0.69698584  0.98520475  0.87252128     0.14800
H1052       H  0.66433967  0.62366249  0.92913842     0.14600
C1053       C  0.64699614  0.57703762  0.49842755     0.02200
C1054       C  0.64799810  0.64967083  0.50457078     0.02200
C1055       C  0.62053097  0.67641354  0.52734681    -0.18300
C1056       C  0.59900074  0.63626347  0.55019183     0.02200
C1057       C  0.60521979  0.56589181  0.55085553     0.02200
C1058       C  0.62847305  0.53739968  0.52451899    -0.18300
H1059       H  0.63152710  0.48364254  0.52421509     0.04200
H1060       H  0.61603648  0.73013351  0.52756415     0.04200
C1061       C  0.64917763  0.89934830  0.90611434     0.02200
C1062       C  0.64835044  0.82753888  0.90824779     0.02200
C1063       C  0.62261820  0.79354787  0.88623557    -0.18300
C1064       C  0.59803501  0.82758615  0.86307609     0.02200
C1065       C  0.59810512  0.89828014  0.86186526     0.02200
C1066       C  0.62317872  0.93286929  0.88351292    -0.18300
H1067       H  0.62351376  0.98712428  0.88145806     0.04200
H1068       H  0.62168641  0.73925252  0.88691594     0.04200
C1069       C  0.28101710  0.83158787  0.85308142     0.02200
C1070       C  0.28844558  0.90083376  0.85742871     0.02200
C1071       C  0.26716857  0.93755646  0.88188350    -0.18300
C1072       C  0.23938513  0.90770886  0.90336614     0.02200
C1073       C  0.23510939  0.83514175  0.90208684     0.02200
C1074       C  0.25426989  0.80038616  0.87502033    -0.18300
H1075       H  0.24955740  0.74709099  0.87214836     0.04200
H1076       H  0.27256893  0.99068520  0.88445903     0.04200
C1077       C  0.21658502  0.95669887  0.92642747     0.86400
C1078       C  0.19330081  0.51091571  0.90665778    -0.53800
C1079       C  0.17023606  0.54758746  0.92903405     0.09300
C1080       C  0.17581296  0.52769073  0.97022137     0.20300
C1081       C  0.23970144  0.49615500  0.95401164    -0.54500
C1082       C  0.21923518  0.53743899  0.97598467     0.09400
C1083       C  0.18681004  0.92025864  0.94621260    -0.54100
C1084       C  0.16851811  0.95137367  0.97218097     0.10000
H1085       H  0.19283596  0.51620508  0.87749469     0.14500
H1086       H  0.15744028  0.55185564  0.99014166     0.00300
H1087       H  0.27021752  0.49376100  0.95489163     0.14800
H1088       H  0.16714996  0.89842400  0.92817858     0.14600
C1089       C  0.24272218  0.65551997  0.50229610     0.02200
C1090       C  0.23988028  0.58226515  0.50258400     0.02200
C1091       C  0.26405367  0.54631733  0.52585524    -0.18300
C1092       C  0.29016594  0.57808691  0.54782448     0.02200
C1093       C  0.29250826  0.64857706  0.54768016     0.02200
C1094       C  0.26921431  0.68592286  0.52493749    -0.18300
H1095       H  0.27120000  0.74009791  0.52556323     0.04200
H1096       H  0.26324373  0.49199011  0.52634188     0.04200
C1097       C  0.21915977  0.70542064  0.97996854     0.86400
C1098       C  0.24059589  0.74786062  0.95154406    -0.53800
C1099       C  0.21820196  0.78975466  0.93086075     0.09300
C1100       C  0.17576549  0.77892204  0.93914137     0.20300
C1101       C  0.19681572  0.75746071  0.50133544    -0.54500
C1102       C  0.17276448  0.79580480  0.98058757     0.09400
C1103       C  0.18881467  0.66981427  0.96085775    -0.54100
C1104       C  0.16937396  0.70301945  0.93597258     0.10000
H1105       H  0.27097120  0.74605790  0.94873983     0.14500
H1106       H  0.15559574  0.80417775  0.92139434     0.00300
H1107       H  0.19790639  0.76047811  0.53054272     0.14800
H1108       H  0.16999487  0.64587696  0.97906706     0.14600
O1109       O  0.48402713  0.92456217  0.73746726    -0.74500
O1110       O  0.40819000  0.92997060  0.66324769    -0.74500
O1111       O  0.48527383  0.92747037  0.66471335    -0.74600
O1112       O  0.40802836  0.92614102  0.73696765    -0.74600
O1113       O  0.40758136  0.53727987  0.73975118    -0.74600
O1114       O  0.48536971  0.53841075  0.66758081    -0.74500
O1115       O  0.40864860  0.54121816  0.66597057    -0.74500
O1116       O  0.48368898  0.53581472  0.74055206    -0.74600
Ni1117     Ni  0.44615835  0.92307925  0.70048491     1.25400
Ni1118     Ni  0.44620111  0.54218758  0.70328996     1.25400
C1119       C  0.49632408  0.97886500  0.75115728     0.87700
C1120       C  0.39605888  0.48722970  0.65232760     0.87600
C1121       C  0.49921906  0.48389304  0.65531085     0.87600
C1122       C  0.39620113  0.98027058  0.75135545     0.87800
O1123       O  0.40711371  0.79398981  0.74032030    -0.74500
O1124       O  0.48382502  0.77784689  0.66825191    -0.74500
O1125       O  0.40779187  0.78339041  0.66747021    -0.74600
O1126       O  0.48338985  0.78957184  0.74158864    -0.74600
O1127       O  0.48078934  0.67895645  0.74918297    -0.74600
O1128       O  0.40497106  0.67282514  0.67491612    -0.74500
O1129       O  0.48118725  0.66741904  0.67593096    -0.74500
O1130       O  0.40401116  0.68352655  0.74720682    -0.74600
Ni1131     Ni  0.44573051  0.79019686  0.70437600     1.25400
Ni1132     Ni  0.44287608  0.67171038  0.71206191     1.25400
C1133       C  0.39176224  0.74208490  0.75441123     0.87700
C1134       C  0.49409409  0.71882205  0.65931909     0.87600
C1135       C  0.39392768  0.72666858  0.65897783     0.87600
C1136       C  0.49424326  0.73598564  0.75780650     0.87800
C1137       C  0.78421878  0.61651310  0.85476700     0.02200
C1138       C  0.78995135  0.68412996  0.86400720     0.02200
C1139       C  0.76946834  0.71192246  0.89253136    -0.18300
C1140       C  0.74324817  0.67422482  0.91270373     0.02200
C1141       C  0.73614349  0.60432558  0.90170577     0.02200
C1142       C  0.75725607  0.57902106  0.87285776    -0.18300
H1143       H  0.75456570  0.52722704  0.86510694     0.04200
H1144       H  0.77535286  0.76313752  0.89989652     0.04200
C1145       C  0.78708683  0.92702089  0.54708638     0.02200
C1146       C  0.78615502  0.85646990  0.54945684     0.02200
C1147       C  0.76130673  0.82124431  0.52775929    -0.18300
C1148       C  0.73658663  0.85394312  0.50355219     0.02200
C1149       C  0.73897458  0.92569767  0.49973997     0.02200
C1150       C  0.76397522  0.96042175  0.52226957    -0.18300
H1151       H  0.76513694  0.01466617  0.52096596     0.04200
H1152       H  0.76088428  0.76705769  0.53027940     0.04200
C1153       C  0.30304071  0.68657060  0.61032403    -0.01900
C1154       C  0.31580185  0.68386662  0.57465470     0.07800
C1155       C  0.35085159  0.71230083  0.56588154    -0.02000
C1156       C  0.37459046  0.73496963  0.59368790    -0.02000
C1157       C  0.36516628  0.72196991  0.63005766     0.07900
C1158       C  0.32849010  0.69996990  0.63810241    -0.02200
Br1159     Br  0.31209267  0.68799196  0.68660267    -0.00800
Br1160     Br  0.25004492  0.67802720  0.62041599    -0.00900
Br1161     Br  0.41903646  0.78483163  0.58190935    -0.00800
Br1162     Br  0.36593747  0.72116067  0.51622364    -0.00800
C1163       C  0.35270091  0.52521192  0.56131071    -0.01900
C1164       C  0.31513546  0.53704717  0.57124507     0.07800
C1165       C  0.30247133  0.51543650  0.60518905    -0.02000
C1166       C  0.32879411  0.49789779  0.63191155    -0.02000
C1167       C  0.36733879  0.49274062  0.62339085     0.07900
C1168       C  0.37845862  0.50073589  0.58713573    -0.02200
Br1169     Br  0.42835937  0.47732872  0.57251210    -0.00800
Br1170     Br  0.36824649  0.54058531  0.51215776    -0.00900
Br1171     Br  0.31152185  0.98555911  0.68010908    -0.00800
Br1172     Br  0.24925364  0.50749704  0.61444393    -0.03600
C1173       C  0.35589438  0.91445069  0.83904932    -0.01900
C1174       C  0.31819385  0.93564792  0.83609000     0.07800
C1175       C  0.30892648  0.98652865  0.81079494    -0.02000
C1176       C  0.33572634  0.00666907  0.78496069    -0.02000
C1177       C  0.37094990  0.97428713  0.78319968     0.07900
C1178       C  0.38178688  0.93194042  0.81201654    -0.02200
Br1179     Br  0.43275394  0.90060586  0.81531442    -0.00800
Br1180     Br  0.37228591  0.86421436  0.88091561    -0.00900
Br1181     Br  0.32428174  0.57998014  0.75356059    -0.00800
Br1182     Br  0.25934549  0.52703612  0.81001062    -0.00800
C1183       C  0.30025990  0.81276371  0.78962165    -0.01900
C1184       C  0.30168466  0.79170090  0.82576376     0.07800
C1185       C  0.32663138  0.73929113  0.83575742    -0.02000
C1186       C  0.35386333  0.71694235  0.81093165    -0.02000
C1187       C  0.35827435  0.75139714  0.77767924     0.07900
C1188       C  0.32996407  0.79694940  0.76649081    -0.02200
Br1189     Br  0.33134750  0.83900440  0.71972327    -0.00800
Br1190     Br  0.25716983  0.86238056  0.77206220    -0.00900
Br1191     Br  0.38451904  0.64021660  0.82329512    -0.00800
Br1192     Br  0.32543525  0.70029742  0.88364213    -0.00800
C1193       C  0.58686012  0.93050462  0.79807233    -0.01900
C1194       C  0.57605190  0.93577538  0.83420999     0.07800
C1195       C  0.54360357  0.97331376  0.84277675    -0.02000
C1196       C  0.51944475  0.99565516  0.81480400    -0.02000
C1197       C  0.52596510  0.97436998  0.77914850     0.07900
C1198       C  0.56070004  0.94422400  0.77084651    -0.02200
Br1199     Br  0.57302329  0.42061199  0.72260270    -0.00800
Br1200     Br  0.63845813  0.91057341  0.78619555    -0.00900
Br1201     Br  0.47806037  0.05474755  0.82529378    -0.00800
Br1202     Br  0.53266724  0.99463296  0.89220060    -0.00800
C1203       C  0.58614767  0.75808906  0.80840286    -0.01900
C1204       C  0.57246801  0.78856535  0.83984207     0.07800
C1205       C  0.53389628  0.78507750  0.84784605    -0.02000
C1206       C  0.50886469  0.75897866  0.82234127    -0.02000
C1207       C  0.52166341  0.74197956  0.78773049     0.07900
C1208       C  0.56069622  0.73875920  0.78146801    -0.02200
Br1209     Br  0.57976165  0.71039655  0.73607185    -0.00800
Br1210     Br  0.63935157  0.74125252  0.80262277    -0.00900
Br1211     Br  0.45775050  0.74296119  0.83556549    -0.00800
Br1212     Br  0.51565934  0.81413845  0.89405768    -0.00800
C1213       C  0.58119591  0.71699485  0.59972672    -0.01900
C1214       C  0.57053801  0.66890410  0.57394303     0.07800
C1215       C  0.53263468  0.64885650  0.57228846    -0.02000
C1216       C  0.50782362  0.66538455  0.60026984    -0.02000
C1217       C  0.51942824  0.70797345  0.62813767     0.07900
C1218       C  0.55517838  0.73769268  0.62597547    -0.02200
Br1219     Br  0.56908691  0.80629310  0.65870271    -0.00800
Br1220     Br  0.63159472  0.75321433  0.60090414    -0.00900
Br1221     Br  0.45759468  0.63039193  0.59983808    -0.00800
Br1222     Br  0.51408429  0.60221330  0.53067846    -0.00800
C1223       C  0.59178038  0.54218946  0.61551373    -0.01900
C1224       C  0.58726825  0.52333306  0.57944337     0.07800
C1225       C  0.56068183  0.47312306  0.57150534    -0.02000
C1226       C  0.53486114  0.45251890  0.59835094    -0.02000
C1227       C  0.53262496  0.48789764  0.63110986     0.07900
C1228       C  0.56270469  0.53041774  0.64019714    -0.02200
Br1229     Br  0.56420245  0.57520128  0.68560289    -0.00800
Br1230     Br  0.63772530  0.58457939  0.63048598    -0.00900
Br1231     Br  0.50342935  0.87656288  0.58974401    -0.00800
Br1232     Br  0.55744134  0.93525529  0.52395585    -0.00800
C1233       C  0.05678400  0.80888505  0.63925144    -0.01900
C1234       C  0.02623378  0.76646072  0.63154863     0.07800
C1235       C  0.02665766  0.73223585  0.59840162    -0.02000
C1236       C  0.05066442  0.75399314  0.57026059    -0.02000
C1237       C  0.07725705  0.80486141  0.57677002     0.07900
C1238       C  0.08357014  0.82400598  0.61260015    -0.02200
Br1239     Br  0.13035423  0.86584333  0.62539338    -0.00800
Br1240     Br  0.06313110  0.84458929  0.68663401    -0.00900
Br1241     Br  0.04616081  0.71501061  0.52305947    -0.00800
Br1242     Br  0.99715844  0.65340195  0.59189748    -0.00800
C1243       C  0.83362762  0.79279768  0.79133096    -0.01900
C1244       C  0.86981587  0.76356369  0.79022538     0.07800
C1245       C  0.88236693  0.72797873  0.82091578    -0.02000
C1246       C  0.85690662  0.70845093  0.84795570    -0.02000
C1247       C  0.81858522  0.72467615  0.84433591     0.07900
C1248       C  0.80776522  0.77289882  0.81824825    -0.02200
Br1249     Br  0.75759534  0.81028394  0.81896179    -0.00800
Br1250     Br  0.82029793  0.86323551  0.75852702    -0.00900
Br1251     Br  0.87428429  0.66124418  0.89040053    -0.00800
Br1252     Br  0.93504094  0.71362328  0.82777291    -0.00800
C1253       C  0.79784780  0.80004861  0.60930195    -0.01900
C1254       C  0.81098079  0.81899154  0.57495842     0.07800
C1255       C  0.84857477  0.80556033  0.56580843    -0.02000
C1256       C  0.87377306  0.78182696  0.59236669    -0.02000
C1257       C  0.86235738  0.77629995  0.62867795     0.07900
C1258       C  0.82375786  0.78302815  0.63664164    -0.02200
Br1259     Br  0.80584248  0.77130975  0.68471039    -0.00800
Br1260     Br  0.74453140  0.79352839  0.61818921    -0.00900
Br1261     Br  0.92304400  0.75407585  0.57841136    -0.00800
Br1262     Br  0.86489271  0.81712021  0.51658133    -0.00800
C1263       C  0.05364503  0.01423695  0.61846222    -0.01900
C1264       C  0.01730798  0.98661399  0.62163470     0.07800
C1265       C  0.00372108  0.94618299  0.59356858    -0.02000
C1266       C  0.02668453  0.93071634  0.56401639    -0.02000
C1267       C  0.06473231  0.94948552  0.56395124     0.07900
C1268       C  0.07752229  0.99534903  0.58988511    -0.02200
Br1269     Br  0.12823337  0.02980527  0.58759535    -0.00800
Br1270     Br  0.07203510  0.57429268  0.65407652    -0.00900
Br1271     Br  0.00616680  0.88414346  0.52322626    -0.00800
Br1272     Br  0.95389284  0.90985558  0.59569343    -0.00800
C1273       C  0.79929400  0.96975427  0.60848110    -0.01900
C1274       C  0.81044119  0.96608687  0.57237721     0.07800
C1275       C  0.84535632  0.99303089  0.56203359    -0.02000
C1276       C  0.87048213  0.01561034  0.58870730    -0.02000
C1277       C  0.86256983  0.00344591  0.62554089     0.07900
C1278       C  0.82623128  0.98159023  0.63517452    -0.02200
Br1279     Br  0.81298836  0.96388376  0.68425496    -0.00800
Br1280     Br  0.74669290  0.96379795  0.62056732    -0.00900
Br1281     Br  0.91529170  0.06202165  0.57449377    -0.00800
Br1282     Br  0.85854583  0.99892705  0.51172049    -0.00800
C1283       C  0.85765641  0.50667671  0.80891104    -0.01900
C1284       C  0.85913104  0.53840503  0.77461983     0.07800
C1285       C  0.83022080  0.58394977  0.76497335    -0.02000
C1286       C  0.80297544  0.60283926  0.79027918    -0.02000
C1287       C  0.80698968  0.58292942  0.82646266     0.07900
C1288       C  0.83293687  0.53146348  0.83541127    -0.02200
Br1289     Br  0.83546555  0.49566701  0.88399709    -0.00800
Br1290     Br  0.88841433  0.92924640  0.82021312    -0.00900
Br1291     Br  0.75853231  0.65125100  0.77508804    -0.00800
Br1292     Br  0.82669111  0.61887345  0.71668529    -0.00800
C1293       C  0.02443644  0.78148297  0.81436993    -0.01900
C1294       C  0.02670061  0.75316719  0.77970581     0.07800
C1295       C  0.05822510  0.71322643  0.77137515    -0.02000
C1296       C  0.08439288  0.69589505  0.79821121    -0.02000
C1297       C  0.07613049  0.70866323  0.83452805     0.07900
C1298       C  0.04770600  0.75618250  0.84240234    -0.02200
Br1299     Br  0.03980216  0.78556977  0.89114591    -0.00800
Br1300     Br  0.99010845  0.85439656  0.82349265    -0.00900
Br1301     Br  0.13291011  0.66026074  0.78517349    -0.00800
Br1302     Br  0.06624091  0.68265911  0.72324663    -0.00800
C1303       C  0.02776047  0.57018801  0.84443102    -0.01900
C1304       C  0.06680571  0.56191679  0.84072539     0.07800
C1305       C  0.08083042  0.52567383  0.81108995    -0.02000
C1306       C  0.05697109  0.51230195  0.78164864    -0.02000
C1307       C  0.01814944  0.52585058  0.78398905     0.07900
C1308       C  0.00361894  0.54971723  0.81671914    -0.02200
Br1309     Br  0.95065654  0.55183287  0.82418913    -0.00800
Br1310     Br  0.00747227  0.60813835  0.88793852    -0.00900
Br1311     Br  0.07825919  0.48153737  0.73749302    -0.00800
Br1312     Br  0.13219650  0.49374247  0.81074863    -0.00800
loop_ 
_geom_bond_atom_site_label_1 
_geom_bond_atom_site_label_2 
_geom_bond_distance 
_geom_bond_site_symmetry_2 
_ccdc_geom_bond_type 
C1            C2   1.419       .  A
C1            C6   1.400       .  A
C1          C313   1.499       .  S
C2            C3   1.400       .  A
C2          C320   1.491       .  S
C3            C4   1.406       .  A
C3            H8   1.085       .  S
C4            C5   1.442       .  A
C4           C95   1.512       .  S
C5            C6   1.413       .  A
C5          C120   1.504       .  S
C6            H7   1.076       .  S
O9          Ni17   1.919       .  S
O9           C19   1.279       .  A
O10         Ni17   1.922       .  S
O10         C676   1.278       .  A
O11         Ni17   1.927       .  S
O11          C21   1.281       .  A
O12         Ni17   1.933       .  S
O12         C678   1.281       .  A
O13         Ni18   1.926       .  S
O13          C22   1.280       .  A
O14         Ni18   1.930       .  S
O14         C677   1.280       .  A
O15         Ni18   1.921       .  S
O15          C20   1.282       .  A
O16         Ni18   1.928       .  S
O16         C675   1.280   1_545  A
Ni17       Ni674   2.381       .  S
Ni18       Ni673   2.381   1_545  S
C19         C280   1.489   1_655  S
C19         O672   1.280       .  A
C20         C300   1.489       .  S
C20         O666   1.278   1_545  A
C21         C293   1.486       .  S
C21         O670   1.280       .  A
C22         C323   1.488   1_655  S
C22         O668   1.281   1_545  A
O23         Ni31   1.929       .  S
O23          C33   1.280       .  A
O24         Ni31   1.930       .  S
O24          C34   1.280       .  A
O25         Ni31   1.923       .  S
O25          C35   1.280       .  A
O26         Ni31   1.933       .  S
O26          C36   1.280       .  A
O27         Ni32   1.934       .  S
O27          C36   1.283       .  A
O28         Ni32   1.938       .  S
O28          C35   1.282       .  A
O29         Ni32   1.922       .  S
O29          C34   1.281       .  A
O30         Ni32   1.938       .  S
O30          C33   1.282       .  A
Ni31        Ni32   2.380       .  S
C33         C273   1.491       .  S
C34         C310   1.488   1_655  S
C35         C250   1.498   1_655  S
C36         C260   1.494       .  S
C37          C38   1.420       .  A
C37          C42   1.407       .  A
C37         C283   1.491       .  S
C38          C39   1.393       .  A
C38         C253   1.500       .  S
C39          C40   1.406   1_554  A
C39          H44   1.085       .  S
C40          C41   1.443       .  A
C40         C446   1.507       .  S
C41          C42   1.409   1_556  A
C41         C428   1.509       .  S
C42          H43   1.080       .  S
C45          C51   1.518       .  S
C45          C49   1.540       .  S
C45         C374   1.541       .  S
C45         C398   1.557       .  S
C46         C373   1.541   1_554  S
C46          H53   1.085       .  S
C46         C375   1.392   1_554  D
C47         C492   1.502       .  S
C47          C48   1.570       .  S
C47         C374   1.392       .  D
C48          C52   1.593       .  S
C48          C50   1.531       .  S
C48          H54   1.109       .  S
C49          H55   1.087       .  S
C49          C50   1.367       .  D
C50          C78   1.499       .  S
C51          H56   1.079       .  S
C51          C52   1.343       .  D
C52         C156   1.532       .  S
C57          C63   1.519       .  S
C57         C714   1.551       .  S
C57         C717   1.541   1_545  S
C57         C157   1.564       .  S
C58         C713   1.551       .  S
C58          H65   1.087       .  S
C58          C59   1.373       .  D
C59         C493   1.497       .  S
C59          C60   1.522       .  S
C60          C62   1.564       .  S
C60         C720   1.588       .  S
C60          H66   1.108       .  S
C61         C713   1.541       .  S
C61          H67   1.086       .  S
C61          C62   1.385       .  D
C62          C77   1.491       .  S
C63          H68   1.078       .  S
C63          C64   1.347       .  D
C64         C397   1.533       .  S
C64         C716   1.588   1_545  S
C69          C70   1.471   1_556  A
C69          C74   1.409   1_556  A
C69         C392   1.533       .  S
C70          C71   1.399       .  A
C70         C373   1.557   1_554  S
C71          C72   1.393       .  A
C71          H76   1.084       .  S
C72          C73   1.421       .  A
C72         C230   1.494       .  S
C73          C74   1.404       .  A
C73         C240   1.497       .  S
C74          H75   1.079   1_545  S
C77          C78   1.436       .  A
C77          C82   1.409       .  A
C78          C79   1.408       .  A
C79          C80   1.395       .  A
C79          H84   1.085       .  S
C80          C81   1.412       .  A
C80         C220   1.483       .  S
C81          C82   1.391       .  A
C81         C210   1.485       .  S
C82          H83   1.085       .  S
C85          C86   1.420       .  A
C85          C90   1.397       .  A
C85         C200   1.488       .  S
C86          C87   1.394       .  A
C86         C190   1.492       .  S
C87          C88   1.401       .  A
C87          H92   1.084       .  S
C88          C89   1.459       .  A
C88          C93   1.535       .  S
C89          C90   1.402       .  A
C89         C115   1.519       .  S
C90          H91   1.085       .  S
C93          C99   1.479       .  S
C93         C750   1.539       .  S
C93         C753   1.539       .  S
C94         C749   1.539   1_545  S
C94         H101   1.086       .  S
C94          C95   1.380       .  D
C95          C96   1.587       .  S
C96          C98   1.572       .  S
C96         C756   1.548   1_545  S
C96         H102   1.100       .  S
C97         C749   1.539       .  S
C97         H103   1.086       .  S
C97          C98   1.372   1_565  D
C98         C434   1.530       .  S
C99         H104   1.066       .  S
C99         C100   1.322       .  D
C100        C369   1.509       .  S
C100        C752   1.548       .  S
C105        C106   1.467       .  A
C105        C110   1.406       .  A
C105        C441   1.534   1_554  S
C106        C107   1.407       .  A
C106        C426   1.530   1_554  S
C107        C108   1.395       .  A
C107        H112   1.085   1_545  S
C108        C109   1.411       .  A
C108        C180   1.480       .  S
C109        C110   1.391       .  A
C109        C170   1.485       .  S
C110        H111   1.085       .  S
C113        C114   1.549       .  S
C113        C119   1.480       .  S
C113        C445   1.533       .  S
C113        C433   1.534       .  S
C114        H121   1.086       .  S
C114        C115   1.379       .  D
C115        C116   1.556       .  S
C116        C120   1.540       .  S
C116        C118   1.581       .  S
C116        H122   1.091       .  S
C117        C441   1.533   1_554  S
C117        H123   1.087       .  S
C117        C446   1.375   1_554  D
C118        C368   1.507       .  S
C118        C445   1.375       .  D
C119        H124   1.063       .  S
C119        C120   1.323       .  D
O125       Ni133   1.923       .  S
O125        C135   1.281       .  A
O126       Ni133   1.935       .  S
O126        C792   1.282       .  A
O127       Ni133   1.925       .  S
O127        C793   1.279       .  A
O128       Ni133   1.917       .  S
O128        C138   1.280       .  A
O129       Ni134   1.930       .  S
O129        C794   1.280   1_545  A
O130       Ni134   1.924       .  S
O130        C137   1.281   1_545  A
O131       Ni134   1.923       .  S
O131        C136   1.279   1_545  A
O132       Ni134   1.923       .  S
O132        C791   1.279   1_545  A
Ni133      Ni790   2.382       .  S
Ni134      Ni789   2.382   1_545  S
C135        C213   1.481       .  S
C135        O788   1.279       .  A
C136        C183   1.484       .  S
C136        O782   1.282       .  A
C137        C243   1.491       .  S
C137        O783   1.279       .  A
C138        C193   1.488       .  S
C138        O785   1.280       .  A
O139       Ni147   1.916       .  S
O139        C149   1.281       .  A
O140       Ni147   1.923       .  S
O140        C150   1.279       .  A
O141       Ni147   1.928       .  S
O141        C151   1.280       .  A
O142       Ni147   1.923       .  S
O142        C152   1.280       .  A
O143       Ni148   1.934       .  S
O143        C152   1.281       .  A
O144       Ni148   1.927       .  S
O144        C151   1.281       .  A
O145       Ni148   1.914       .  S
O145        C150   1.279       .  A
O146       Ni148   1.916       .  S
O146        C149   1.277       .  A
Ni147      Ni148   2.383       .  S
C149        C203   1.483       .  S
C150        C233   1.484       .  S
C151        C173   1.486       .  S
C152        C223   1.483       .  S
C153        C154   1.413       .  A
C153        C158   1.388       .  A
C153        C303   1.489       .  S
C154        C155   1.403       .  A
C154        C263   1.490       .  S
C155        C156   1.411       .  A
C155        H160   1.083       .  S
C156        C157   1.481       .  A
C157        C158   1.405       .  A
C158        H159   1.081       .  S
C161        C162   1.411       .  A
C161        C166   1.396       .  A
C161        C290   1.483       .  S
C162        C163   1.393       .  A
C162        C270   1.487       .  S
C163        C164   1.409       .  A
C163        H168   1.085       .  S
C164        C165   1.441   1_554  A
C164        C375   1.502   1_554  S
C165        C166   1.410   1_556  A
C165        C387   1.497       .  S
C166        H167   1.085       .  S
C169        C170   1.401       .  A
C169        C174   1.400       .  A
C169       Br176   1.930       .  S
C170        C171   1.409       .  A
C171        C172   1.412       .  A
C171       Br178   1.925       .  S
C172        C173   1.412       .  A
C172       Br177   1.920       .  S
C173        C174   1.409       .  A
C174       Br175   1.905       .  S
C179        C180   1.405       .  A
C179        C184   1.407       .  A
C179       Br186   1.927       .  S
C180        C181   1.402       .  A
C181        C182   1.404   1_545  A
C181       Br188   1.931       .  S
C182        C183   1.410       .  A
C182       Br843   1.905       .  S
C183        C184   1.410   1_565  A
C184       Br185   1.913   1_545  S
Br187       C838   1.905       .  S
C189        C190   1.408       .  A
C189        C194   1.404       .  A
C189       Br196   1.928       .  S
C190        C191   1.413       .  A
C191        C192   1.409       .  A
C191       Br854   1.936       .  S
C192        C193   1.409       .  A
C192       Br853   1.903       .  S
C193        C194   1.408       .  A
C194       Br195   1.918       .  S
Br197       C848   1.903       .  S
Br198       C847   1.936   1_545  S
C199        C200   1.402       .  A
C199        C204   1.398       .  A
C199       Br206   1.930       .  S
C200        C201   1.415       .  A
C201        C202   1.411       .  A
C201       Br208   1.932       .  S
C202        C203   1.415       .  A
C202       Br207   1.927       .  S
C203        C204   1.413       .  A
C204       Br205   1.920       .  S
C209        C210   1.400       .  A
C209        C214   1.397       .  A
C209       Br216   1.928       .  S
C210        C211   1.411       .  A
C211        C212   1.414       .  A
C211       Br218   1.926       .  S
C212        C213   1.413       .  A
C212       Br217   1.924       .  S
C213        C214   1.407       .  A
C214       Br871   1.907       .  S
Br215       C870   1.907       .  S
C219        C220   1.407       .  A
C219        C224   1.406       .  A
C219       Br226   1.932       .  S
C220        C221   1.405       .  A
C221        C222   1.405       .  A
C221       Br228   1.927       .  S
C222        C223   1.407       .  A
C222       Br227   1.911       .  S
C223        C224   1.409       .  A
C224       Br225   1.906       .  S
C229        C230   1.416       .  A
C229        C234   1.407       .  A
C229       Br236   1.937       .  S
C230        C231   1.410       .  A
C231        C232   1.404       .  A
C231       Br238   1.929       .  S
C232        C233   1.409       .  A
C232       Br237   1.922       .  S
C233        C234   1.408       .  A
C234       Br235   1.907       .  S
C239        C240   1.403       .  A
C239        C244   1.401       .  A
C239       Br246   1.928       .  S
C240        C241   1.415   1_545  A
C241        C242   1.414       .  A
C241       Br904   1.930       .  S
C242        C243   1.414       .  A
C242       Br903   1.918       .  S
C243        C244   1.412   1_565  A
C244       Br245   1.917       .  S
Br247       C898   1.918       .  S
Br248       C897   1.930       .  S
C249        C250   1.412       .  A
C249        C254   1.405       .  A
C249       Br256   1.918       .  S
C250        C251   1.413       .  A
C251        C252   1.415       .  A
C251       Br258   1.914   1_455  S
C252        C253   1.414       .  A
C252       Br257   1.931       .  S
C253        C254   1.405       .  A
C254       Br255   1.927       .  S
C259        C260   1.411       .  A
C259        C264   1.413       .  A
C259       Br266   1.908       .  S
C260        C261   1.407       .  A
C261        C262   1.405       .  A
C261       Br268   1.910       .  S
C262        C263   1.405       .  A
C262       Br267   1.926       .  S
C263        C264   1.410       .  A
C264       Br265   1.931       .  S
C269        C270   1.406       .  A
C269        C274   1.408       .  A
C269       Br276   1.929       .  S
C270        C271   1.405       .  A
C271        C272   1.408       .  A
C271       Br278   1.928       .  S
C272        C273   1.410       .  A
C272       Br277   1.908       .  S
C273        C274   1.410       .  A
C274       Br275   1.906       .  S
C279        C280   1.412       .  A
C279        C284   1.412       .  A
C279       Br942   1.911       .  S
C280        C281   1.411       .  A
C281        C282   1.403       .  A
C281       Br288   1.919   1_455  S
C282        C283   1.406       .  A
C282       Br287   1.930       .  S
C283        C284   1.412       .  A
C284       Br285   1.935       .  S
Br286       C935   1.911       .  S
C289        C290   1.399       .  A
C289        C294   1.400       .  A
C289       Br296   1.928       .  S
C290        C291   1.408       .  A
C291        C292   1.412       .  A
C291       Br298   1.927       .  S
C292        C293   1.414       .  A
C292       Br297   1.919       .  S
C293        C294   1.411       .  A
C294       Br295   1.911       .  S
C299        C300   1.416       .  A
C299        C304   1.411       .  A
C299       Br962   1.932   1_545  S
C300        C301   1.413       .  A
C301        C302   1.402       .  A
C301       Br308   1.919       .  S
C302        C303   1.403       .  A
C302       Br307   1.929       .  S
C303        C304   1.414       .  A
C304       Br305   1.934   1_545  S
Br306       C955   1.932       .  S
C309        C310   1.413       .  A
C309        C314   1.416       .  A
C309       Br316   1.928   1_455  S
C310        C311   1.409       .  A
C311        C312   1.402       .  A
C311       Br318   1.914       .  S
C312        C313   1.405       .  A
C312       Br317   1.927       .  S
C313        C314   1.416       .  A
C314       Br315   1.927       .  S
C319        C320   1.404       .  A
C319        C324   1.405       .  A
C319       Br326   1.929       .  S
C320        C321   1.413       .  A
C321        C322   1.411       .  A
C321       Br328   1.932   1_545  S
C322        C323   1.408       .  A
C322       Br327   1.911   1_545  S
C323        C324   1.407       .  A
C324       Br325   1.904   1_455  S
C329        C330   1.419       .  A
C329        C334   1.400       .  A
C329        C641   1.498       .  S
C330        C331   1.400       .  A
C330        C648   1.491       .  S
C331        C332   1.406       .  A
C331        H336   1.085       .  S
C332        C333   1.442       .  A
C332        C423   1.512       .  S
C333        C334   1.413       .  A
C333        C448   1.504       .  S
C334        H335   1.076       .  S
O337       Ni345   1.919       .  S
O337        C347   1.279       .  A
O338       Ni345   1.922       .  S
O338       C1004   1.278       .  A
O339       Ni345   1.927       .  S
O339        C349   1.281       .  A
O340       Ni345   1.933       .  S
O340       C1006   1.281       .  A
O341       Ni346   1.926       .  S
O341        C350   1.280       .  A
O342       Ni346   1.930       .  S
O342       C1005   1.280       .  A
O343       Ni346   1.921       .  S
O343        C348   1.282       .  A
O344       Ni346   1.928       .  S
O344       C1003   1.280   1_545  A
Ni345     Ni1002   2.381       .  S
Ni346     Ni1001   2.381   1_545  S
C347        C608   1.489   1_655  S
C347       O1000   1.280       .  A
C348        C628   1.489       .  S
C348        O994   1.278   1_545  A
C349        C621   1.486       .  S
C349        O998   1.280       .  A
C350        C651   1.488   1_655  S
C350        O996   1.281   1_545  A
O351       Ni359   1.929       .  S
O351        C361   1.280       .  A
O352       Ni359   1.930       .  S
O352        C362   1.280       .  A
O353       Ni359   1.923       .  S
O353        C363   1.280       .  A
O354       Ni359   1.933       .  S
O354        C364   1.280       .  A
O355       Ni360   1.934       .  S
O355        C364   1.283       .  A
O356       Ni360   1.938       .  S
O356        C363   1.282       .  A
O357       Ni360   1.922       .  S
O357        C362   1.281       .  A
O358       Ni360   1.938       .  S
O358        C361   1.282       .  A
Ni359      Ni360   2.380       .  S
C361        C601   1.491       .  S
C362        C638   1.488   1_655  S
C363        C578   1.498   1_655  S
C364        C588   1.494       .  S
C365        C366   1.420       .  A
C365        C370   1.407       .  A
C365        C611   1.491       .  S
C366        C367   1.393       .  A
C366        C581   1.500       .  S
C367        C368   1.406       .  A
C367        H372   1.085       .  S
C368        C369   1.443       .  A
C369        C370   1.409       .  A
C370        H371   1.080       .  S
C373        C379   1.518       .  S
C373        C377   1.540       .  S
C374        H381   1.085       .  S
C375        C376   1.570       .  S
C376        C380   1.593       .  S
C376        C378   1.531       .  S
C376        H382   1.109       .  S
C377        H383   1.087       .  S
C377        C378   1.367       .  D
C378        C406   1.499       .  S
C379        H384   1.079       .  S
C379        C380   1.343       .  D
C380        C484   1.532       .  S
C385       C1042   1.551       .  S
C385        C391   1.519       .  S
C385       C1045   1.541   1_545  S
C385        C485   1.564       .  S
C386       C1041   1.551       .  S
C386        H393   1.087       .  S
C386        C387   1.373       .  D
C387        C388   1.522       .  S
C388       C1048   1.588       .  S
C388        C390   1.564       .  S
C388        H394   1.108       .  S
C389       C1041   1.541       .  S
C389        H395   1.086       .  S
C389        C390   1.385       .  D
C390        C405   1.491       .  S
C391        H396   1.078       .  S
C391        C392   1.347       .  D
C392       C1044   1.588   1_545  S
C397        C398   1.471       .  A
C397        C402   1.409       .  A
C398        C399   1.399       .  A
C399        C400   1.393       .  A
C399        H404   1.084       .  S
C400        C401   1.421       .  A
C400        C558   1.494       .  S
C401        C402   1.404       .  A
C401        C568   1.497       .  S
C402        H403   1.079   1_545  S
C405        C406   1.436       .  A
C405        C410   1.409       .  A
C406        C407   1.408       .  A
C407        C408   1.395       .  A
C407        H412   1.085       .  S
C408        C409   1.412       .  A
C408        C548   1.483       .  S
C409        C410   1.391       .  A
C409        C538   1.485       .  S
C410        H411   1.085       .  S
C413        C414   1.420       .  A
C413        C418   1.397       .  A
C413        C528   1.488       .  S
C414        C415   1.394       .  A
C414        C518   1.492       .  S
C415        C416   1.401       .  A
C415        H420   1.084       .  S
C416        C417   1.459       .  A
C416        C421   1.535       .  S
C417        C418   1.402       .  A
C417        C443   1.519       .  S
C418        H419   1.085       .  S
C421       C1078   1.539       .  S
C421        C427   1.479       .  S
C421       C1081   1.539       .  S
C422       C1077   1.539   1_545  S
C422        H429   1.086       .  S
C422        C423   1.380       .  D
C423        C424   1.587       .  S
C424       C1084   1.548   1_545  S
C424        C426   1.572       .  S
C424        H430   1.100       .  S
C425       C1077   1.539       .  S
C425        H431   1.086       .  S
C425        C426   1.372   1_565  D
C427        H432   1.066       .  S
C427        C428   1.322       .  D
C428       C1080   1.548       .  S
C433        C434   1.467       .  A
C433        C438   1.406       .  A
C434        C435   1.407       .  A
C435        C436   1.395       .  A
C435        H440   1.085   1_545  S
C436        C437   1.411       .  A
C436        C508   1.480       .  S
C437        C438   1.391       .  A
C437        C498   1.485       .  S
C438        H439   1.085       .  S
C441        C442   1.549       .  S
C441        C447   1.480       .  S
C442        H449   1.086       .  S
C442        C443   1.379       .  D
C443        C444   1.556       .  S
C444        C448   1.540       .  S
C444        C446   1.581       .  S
C444        H450   1.091       .  S
C445        H451   1.087       .  S
C447        H452   1.063       .  S
C447        C448   1.323       .  D
O453       Ni461   1.923       .  S
O453        C463   1.281       .  A
O454       Ni461   1.935       .  S
O454       C1120   1.282       .  A
O455       Ni461   1.925       .  S
O455       C1121   1.279       .  A
O456       Ni461   1.917       .  S
O456        C466   1.280       .  A
O457       Ni462   1.930       .  S
O457       C1122   1.280   1_545  A
O458       Ni462   1.924       .  S
O458        C465   1.281   1_545  A
O459       Ni462   1.923       .  S
O459        C464   1.279   1_545  A
O460       Ni462   1.923       .  S
O460       C1119   1.279   1_545  A
Ni461     Ni1118   2.382       .  S
Ni462     Ni1117   2.382   1_545  S
C463        C541   1.481       .  S
C463       O1116   1.279       .  A
C464        C511   1.484       .  S
C464       O1110   1.282       .  A
C465        C571   1.491       .  S
C465       O1111   1.279       .  A
C466        C521   1.488       .  S
C466       O1113   1.280       .  A
O467       Ni475   1.916       .  S
O467        C477   1.281       .  A
O468       Ni475   1.923       .  S
O468        C478   1.279       .  A
O469       Ni475   1.928       .  S
O469        C479   1.280       .  A
O470       Ni475   1.923       .  S
O470        C480   1.280       .  A
O471       Ni476   1.934       .  S
O471        C480   1.281       .  A
O472       Ni476   1.927       .  S
O472        C479   1.281       .  A
O473       Ni476   1.914       .  S
O473        C478   1.279       .  A
O474       Ni476   1.916       .  S
O474        C477   1.277       .  A
Ni475      Ni476   2.383       .  S
C477        C531   1.483       .  S
C478        C561   1.484       .  S
C479        C501   1.486       .  S
C480        C551   1.483       .  S
C481        C482   1.413       .  A
C481        C486   1.388       .  A
C481        C631   1.489       .  S
C482        C483   1.403       .  A
C482        C591   1.490       .  S
C483        C484   1.411       .  A
C483        H488   1.083       .  S
C484        C485   1.481       .  A
C485        C486   1.405       .  A
C486        H487   1.081       .  S
C489        C490   1.411       .  A
C489        C494   1.396       .  A
C489        C618   1.483       .  S
C490        C491   1.393       .  A
C490        C598   1.487       .  S
C491        C492   1.409       .  A
C491        H496   1.085       .  S
C492        C493   1.441       .  A
C493        C494   1.410       .  A
C494        H495   1.085       .  S
C497        C498   1.401       .  A
C497        C502   1.400       .  A
C497       Br504   1.930       .  S
C498        C499   1.409       .  A
C499        C500   1.412       .  A
C499       Br506   1.925       .  S
C500        C501   1.412       .  A
C500       Br505   1.920       .  S
C501        C502   1.409       .  A
C502       Br503   1.905       .  S
C507        C508   1.405       .  A
C507        C512   1.407       .  A
C507       Br514   1.927       .  S
C508        C509   1.402       .  A
C509        C510   1.404   1_545  A
C509       Br516   1.931       .  S
C510        C511   1.410       .  A
C510      Br1171   1.905       .  S
C511        C512   1.410   1_565  A
C512       Br513   1.913   1_545  S
Br515      C1166   1.905       .  S
C517        C518   1.408       .  A
C517        C522   1.404       .  A
C517       Br524   1.928       .  S
C518        C519   1.413       .  A
C519        C520   1.409       .  A
C519      Br1182   1.936       .  S
C520        C521   1.409       .  A
C520      Br1181   1.903       .  S
C521        C522   1.408       .  A
C522       Br523   1.918       .  S
Br525      C1176   1.903       .  S
Br526      C1175   1.936   1_545  S
C527        C528   1.402       .  A
C527        C532   1.398       .  A
C527       Br534   1.930       .  S
C528        C529   1.415       .  A
C529        C530   1.411       .  A
C529       Br536   1.932       .  S
C530        C531   1.415       .  A
C530       Br535   1.927       .  S
C531        C532   1.413       .  A
C532       Br533   1.920       .  S
C537        C538   1.400       .  A
C537        C542   1.397       .  A
C537       Br544   1.928       .  S
C538        C539   1.411       .  A
C539        C540   1.414       .  A
C539       Br546   1.926       .  S
C540        C541   1.413       .  A
C540       Br545   1.924       .  S
C541        C542   1.407       .  A
C542      Br1199   1.907       .  S
Br543      C1198   1.907       .  S
C547        C548   1.407       .  A
C547        C552   1.406       .  A
C547       Br554   1.932       .  S
C548        C549   1.405       .  A
C549        C550   1.405       .  A
C549       Br556   1.927       .  S
C550        C551   1.407       .  A
C550       Br555   1.911       .  S
C551        C552   1.409       .  A
C552       Br553   1.906       .  S
C557        C558   1.416       .  A
C557        C562   1.407       .  A
C557       Br564   1.937       .  S
C558        C559   1.410       .  A
C559        C560   1.404       .  A
C559       Br566   1.929       .  S
C560        C561   1.409       .  A
C560       Br565   1.922       .  S
C561        C562   1.408       .  A
C562       Br563   1.907       .  S
C567        C568   1.403       .  A
C567        C572   1.400       .  A
C567       Br574   1.928       .  S
C568        C569   1.415   1_545  A
C569        C570   1.414       .  A
C569      Br1232   1.930       .  S
C570        C571   1.414       .  A
C570      Br1231   1.918       .  S
C571        C572   1.412   1_565  A
C572       Br573   1.917       .  S
Br575      C1226   1.918       .  S
Br576      C1225   1.930       .  S
C577        C578   1.412       .  A
C577        C582   1.405       .  A
C577       Br584   1.918       .  S
C578        C579   1.413       .  A
C579        C580   1.415       .  A
C579       Br586   1.914   1_455  S
C580        C581   1.414       .  A
C580       Br585   1.931       .  S
C581        C582   1.405       .  A
C582       Br583   1.927       .  S
C587        C588   1.411       .  A
C587        C592   1.413       .  A
C587       Br594   1.908       .  S
C588        C589   1.407       .  A
C589        C590   1.405       .  A
C589       Br596   1.910       .  S
C590        C591   1.405       .  A
C590       Br595   1.926       .  S
C591        C592   1.410       .  A
C592       Br593   1.931       .  S
C597        C598   1.406       .  A
C597        C602   1.408       .  A
C597       Br604   1.929       .  S
C598        C599   1.405       .  A
C599        C600   1.408       .  A
C599       Br606   1.928       .  S
C600        C601   1.410       .  A
C600       Br605   1.908       .  S
C601        C602   1.410       .  A
C602       Br603   1.906       .  S
C607        C608   1.412       .  A
C607        C612   1.412       .  A
C607      Br1270   1.911       .  S
C608        C609   1.411       .  A
C609        C610   1.403       .  A
C609       Br616   1.919   1_455  S
C610        C611   1.406       .  A
C610       Br615   1.930       .  S
C611        C612   1.412       .  A
C612       Br613   1.935       .  S
Br614      C1263   1.911       .  S
C617        C618   1.399       .  A
C617        C622   1.400       .  A
C617       Br624   1.928       .  S
C618        C619   1.408       .  A
C619        C620   1.412       .  A
C619       Br626   1.927       .  S
C620        C621   1.414       .  A
C620       Br625   1.919       .  S
C621        C622   1.411       .  A
C622       Br623   1.911       .  S
C627        C628   1.416       .  A
C627        C632   1.411       .  A
C627      Br1290   1.932   1_545  S
C628        C629   1.413       .  A
C629        C630   1.402       .  A
C629       Br636   1.919       .  S
C630        C631   1.403       .  A
C630       Br635   1.929       .  S
C631        C632   1.414       .  A
C632       Br633   1.934   1_545  S
Br634      C1283   1.932       .  S
C637        C638   1.413       .  A
C637        C642   1.416       .  A
C637       Br644   1.928   1_455  S
C638        C639   1.409       .  A
C639        C640   1.402       .  A
C639       Br646   1.914       .  S
C640        C641   1.405       .  A
C640       Br645   1.927       .  S
C641        C642   1.416       .  A
C642       Br643   1.927       .  S
C647        C648   1.404       .  A
C647        C652   1.405       .  A
C647       Br654   1.929       .  S
C648        C649   1.413       .  A
C649        C650   1.411       .  A
C649       Br656   1.932   1_545  S
C650        C651   1.408       .  A
C650       Br655   1.911   1_545  S
C651        C652   1.407       .  A
C652       Br653   1.904   1_455  S
C657        C658   1.419       .  A
C657        C662   1.400       .  A
C657        C969   1.499       .  S
C658        C659   1.400       .  A
C658        C976   1.491       .  S
C659        C660   1.406       .  A
C659        H664   1.085       .  S
C660        C661   1.442       .  A
C660        C751   1.512       .  S
C661        C662   1.413       .  A
C661        C776   1.504       .  S
C662        H663   1.076       .  S
O665       Ni673   1.919       .  S
O665        C675   1.279       .  A
O666       Ni673   1.922       .  S
O667       Ni673   1.927       .  S
O667        C677   1.281   1_565  A
O668       Ni673   1.933       .  S
O669       Ni674   1.926       .  S
O669        C678   1.280       .  A
O670       Ni674   1.930       .  S
O671       Ni674   1.921       .  S
O671        C676   1.282       .  A
O672       Ni674   1.928       .  S
C675        C936   1.489   1_655  S
C676        C956   1.489       .  S
C677        C949   1.486       .  S
C678        C979   1.488   1_655  S
O679       Ni687   1.929       .  S
O679        C689   1.280       .  A
O680       Ni687   1.930       .  S
O680        C690   1.280       .  A
O681       Ni687   1.923       .  S
O681        C691   1.280       .  A
O682       Ni687   1.933       .  S
O682        C692   1.280       .  A
O683       Ni688   1.934       .  S
O683        C692   1.283       .  A
O684       Ni688   1.938       .  S
O684        C691   1.282       .  A
O685       Ni688   1.922       .  S
O685        C690   1.281       .  A
O686       Ni688   1.938       .  S
O686        C689   1.282       .  A
Ni687      Ni688   2.380       .  S
C689        C929   1.491       .  S
C690        C966   1.488   1_655  S
C691        C906   1.498   1_655  S
C692        C916   1.494       .  S
C693        C694   1.420       .  A
C693        C698   1.407       .  A
C693        C939   1.491       .  S
C694        C695   1.393       .  A
C694        C909   1.500       .  S
C695        C696   1.406   1_554  A
C695        H700   1.085       .  S
C696        C697   1.443       .  A
C696       C1102   1.507       .  S
C697        C698   1.409   1_556  A
C697       C1084   1.509       .  S
C698        H699   1.080       .  S
C701       C1030   1.541       .  S
C701        C707   1.518       .  S
C701        C705   1.540       .  S
C701       C1054   1.557       .  S
C702       C1029   1.541   1_554  S
C702        H709   1.085       .  S
C702       C1031   1.392   1_554  D
C703       C1148   1.502       .  S
C703        C704   1.570       .  S
C703       C1030   1.392       .  D
C704        C708   1.593       .  S
C704        C706   1.531       .  S
C704        H710   1.109       .  S
C705        H711   1.087       .  S
C705        C706   1.367       .  D
C706        C734   1.499       .  S
C707        H712   1.079       .  S
C707        C708   1.343       .  D
C708        C812   1.532       .  S
C713        C719   1.519       .  S
C713        C813   1.564       .  S
C714        H721   1.087       .  S
C714        C715   1.373   1_545  D
C715       C1149   1.497       .  S
C715        C716   1.522       .  S
C716        C718   1.564       .  S
C716        H722   1.108       .  S
C717        H723   1.086       .  S
C717        C718   1.385       .  D
C718        C733   1.491       .  S
C719        H724   1.078       .  S
C719        C720   1.347       .  D
C720       C1053   1.533       .  S
C725        C726   1.471   1_556  A
C725        C730   1.409   1_556  A
C725       C1048   1.533       .  S
C726        C727   1.399       .  A
C726       C1029   1.557   1_554  S
C727        C728   1.393       .  A
C727        H732   1.084       .  S
C728        C729   1.421       .  A
C728        C886   1.494       .  S
C729        C730   1.404       .  A
C729        C896   1.497       .  S
C730        H731   1.079       .  S
C733        C734   1.436       .  A
C733        C738   1.409       .  A
C734        C735   1.408       .  A
C735        C736   1.395       .  A
C735        H740   1.085       .  S
C736        C737   1.412       .  A
C736        C876   1.483       .  S
C737        C738   1.391       .  A
C737        C866   1.485       .  S
C738        H739   1.085       .  S
C741        C742   1.420       .  A
C741        C746   1.397       .  A
C741        C856   1.488       .  S
C742        C743   1.394       .  A
C742        C846   1.492       .  S
C743        C744   1.401       .  A
C743        H748   1.084       .  S
C744        C745   1.459       .  A
C744        C749   1.535       .  S
C745        C746   1.402       .  A
C745        C771   1.519       .  S
C746        H747   1.085       .  S
C749        C755   1.479       .  S
C750        H757   1.086       .  S
C750        C751   1.380       .  D
C751        C752   1.587       .  S
C752        C754   1.572       .  S
C752        H758   1.100       .  S
C753        H759   1.086       .  S
C753        C754   1.372       .  D
C754       C1090   1.530       .  S
C755        H760   1.066       .  S
C755        C756   1.322       .  D
C756       C1025   1.509       .  S
C761        C762   1.467       .  A
C761        C766   1.406       .  A
C761       C1097   1.534   1_554  S
C762        C763   1.407       .  A
C762       C1082   1.530   1_554  S
C763        C764   1.395       .  A
C763        H768   1.085       .  S
C764        C765   1.411       .  A
C764        C836   1.480       .  S
C765        C766   1.391       .  A
C765        C826   1.485       .  S
C766        H767   1.085       .  S
C769        C770   1.549       .  S
C769        C775   1.480       .  S
C769       C1101   1.533       .  S
C769       C1089   1.534       .  S
C770        H777   1.086       .  S
C770        C771   1.379       .  D
C771        C772   1.556       .  S
C772        C776   1.540       .  S
C772        C774   1.581       .  S
C772        H778   1.091       .  S
C773       C1097   1.533   1_554  S
C773        H779   1.087       .  S
C773       C1102   1.375   1_554  D
C774       C1024   1.507       .  S
C774       C1101   1.375       .  D
C775        H780   1.063       .  S
C775        C776   1.323       .  D
O781       Ni789   1.923       .  S
O781        C791   1.281       .  A
O782       Ni789   1.935       .  S
O783       Ni789   1.925       .  S
O784       Ni789   1.917       .  S
O784        C794   1.280       .  A
O785       Ni790   1.930       .  S
O786       Ni790   1.924       .  S
O786        C793   1.281       .  A
O787       Ni790   1.923       .  S
O787        C792   1.279       .  A
O788       Ni790   1.923       .  S
C791        C869   1.481       .  S
C792        C839   1.484       .  S
C793        C899   1.491       .  S
C794        C849   1.488       .  S
O795       Ni803   1.916       .  S
O795        C805   1.281       .  A
O796       Ni803   1.923       .  S
O796        C806   1.279       .  A
O797       Ni803   1.928       .  S
O797        C807   1.280       .  A
O798       Ni803   1.923       .  S
O798        C808   1.280       .  A
O799       Ni804   1.934       .  S
O799        C808   1.281       .  A
O800       Ni804   1.927       .  S
O800        C807   1.281       .  A
O801       Ni804   1.914       .  S
O801        C806   1.279       .  A
O802       Ni804   1.916       .  S
O802        C805   1.277       .  A
Ni803      Ni804   2.383       .  S
C805        C859   1.483       .  S
C806        C889   1.484       .  S
C807        C829   1.486       .  S
C808        C879   1.483       .  S
C809        C810   1.413       .  A
C809        C814   1.388       .  A
C809        C959   1.489       .  S
C810        C811   1.403       .  A
C810        C919   1.490       .  S
C811        C812   1.411       .  A
C811        H816   1.083       .  S
C812        C813   1.481       .  A
C813        C814   1.405       .  A
C814        H815   1.081       .  S
C817        C818   1.411       .  A
C817        C822   1.396       .  A
C817        C946   1.483       .  S
C818        C819   1.393       .  A
C818        C926   1.487       .  S
C819        C820   1.409       .  A
C819        H824   1.085       .  S
C820        C821   1.441   1_554  A
C820       C1031   1.502   1_554  S
C821        C822   1.410   1_556  A
C821       C1043   1.497       .  S
C822        H823   1.085   1_565  S
C825        C826   1.401       .  A
C825        C830   1.400       .  A
C825       Br832   1.930       .  S
C826        C827   1.409       .  A
C827        C828   1.412       .  A
C827       Br834   1.925       .  S
C828        C829   1.412       .  A
C828       Br833   1.920       .  S
C829        C830   1.409       .  A
C830       Br831   1.905       .  S
C835        C836   1.405       .  A
C835        C840   1.407       .  A
C835       Br842   1.927       .  S
C836        C837   1.402       .  A
C837        C838   1.404       .  A
C837       Br844   1.931       .  S
C838        C839   1.410       .  A
C839        C840   1.410       .  A
C840       Br841   1.913       .  S
C845        C846   1.408       .  A
C845        C850   1.404       .  A
C845       Br852   1.928       .  S
C846        C847   1.413       .  A
C847        C848   1.409   1_565  A
C848        C849   1.409   1_545  A
C849        C850   1.408       .  A
C850       Br851   1.918       .  S
C855        C856   1.402       .  A
C855        C860   1.398       .  A
C855       Br862   1.930       .  S
C856        C857   1.415       .  A
C857        C858   1.411       .  A
C857       Br864   1.932       .  S
C858        C859   1.415       .  A
C858       Br863   1.927       .  S
C859        C860   1.413       .  A
C860       Br861   1.920       .  S
C865        C866   1.400       .  A
C865        C870   1.397       .  A
C865       Br872   1.928       .  S
C866        C867   1.411       .  A
C867        C868   1.414       .  A
C867       Br874   1.926       .  S
C868        C869   1.413       .  A
C868       Br873   1.924   1_565  S
C869        C870   1.407       .  A
C875        C876   1.407       .  A
C875        C880   1.406       .  A
C875       Br882   1.932       .  S
C876        C877   1.405       .  A
C877        C878   1.405       .  A
C877       Br884   1.927       .  S
C878        C879   1.407       .  A
C878       Br883   1.911       .  S
C879        C880   1.409       .  A
C880       Br881   1.906       .  S
C885        C886   1.416       .  A
C885        C890   1.407       .  A
C885       Br892   1.937       .  S
C886        C887   1.410       .  A
C887        C888   1.404       .  A
C887       Br894   1.929       .  S
C888        C889   1.409       .  A
C888       Br893   1.922       .  S
C889        C890   1.408       .  A
C890       Br891   1.907       .  S
C895        C896   1.403       .  A
C895        C900   1.401       .  A
C895       Br902   1.928       .  S
C896        C897   1.415       .  A
C897        C898   1.414       .  A
C898        C899   1.414       .  A
C899        C900   1.412       .  A
C900       Br901   1.917       .  S
C905        C906   1.412       .  A
C905        C910   1.405       .  A
C905       Br912   1.918       .  S
C906        C907   1.413       .  A
C907        C908   1.415       .  A
C907       Br914   1.914   1_455  S
C908        C909   1.414       .  A
C908       Br913   1.931       .  S
C909        C910   1.405       .  A
C910       Br911   1.927       .  S
C915        C916   1.411       .  A
C915        C920   1.413       .  A
C915       Br922   1.908       .  S
C916        C917   1.407       .  A
C917        C918   1.405       .  A
C917       Br924   1.910       .  S
C918        C919   1.405       .  A
C918       Br923   1.926       .  S
C919        C920   1.410       .  A
C920       Br921   1.931       .  S
C925        C926   1.406       .  A
C925        C930   1.408       .  A
C925       Br932   1.929       .  S
C926        C927   1.405       .  A
C927        C928   1.408       .  A
C927       Br934   1.928       .  S
C928        C929   1.410       .  A
C928       Br933   1.908       .  S
C929        C930   1.410       .  A
C930       Br931   1.906       .  S
C935        C936   1.412   1_545  A
C935        C940   1.412   1_545  A
C936        C937   1.411       .  A
C937        C938   1.403       .  A
C937       Br944   1.919   1_455  S
C938        C939   1.406       .  A
C938       Br943   1.930       .  S
C939        C940   1.412       .  A
C940       Br941   1.935   1_565  S
C945        C946   1.399       .  A
C945        C950   1.400       .  A
C945       Br952   1.928       .  S
C946        C947   1.408       .  A
C947        C948   1.412   1_565  A
C947       Br954   1.927       .  S
C948        C949   1.414       .  A
C948       Br953   1.919       .  S
C949        C950   1.411   1_545  A
C950       Br951   1.911       .  S
C955        C956   1.416       .  A
C955        C960   1.411       .  A
C956        C957   1.413       .  A
C957        C958   1.402       .  A
C957       Br964   1.919       .  S
C958        C959   1.403       .  A
C958       Br963   1.929       .  S
C959        C960   1.414       .  A
C960       Br961   1.934       .  S
C965        C966   1.413       .  A
C965        C970   1.416       .  A
C965       Br972   1.928   1_455  S
C966        C967   1.409       .  A
C967        C968   1.402       .  A
C967       Br974   1.914       .  S
C968        C969   1.405       .  A
C968       Br973   1.927       .  S
C969        C970   1.416       .  A
C970       Br971   1.927       .  S
C975        C976   1.404       .  A
C975        C980   1.405       .  A
C975       Br982   1.929       .  S
C976        C977   1.413       .  A
C977        C978   1.411       .  A
C977       Br984   1.932       .  S
C978        C979   1.408       .  A
C978       Br983   1.911       .  S
C979        C980   1.407       .  A
C980       Br981   1.904   1_455  S
C985        C986   1.419       .  A
C985        C990   1.400       .  A
C985       C1297   1.499       .  S
C986        C987   1.400       .  A
C986       C1304   1.491       .  S
C987        C988   1.406       .  A
C987        H992   1.085       .  S
C988        C989   1.442       .  A
C988       C1079   1.512       .  S
C989        C990   1.413       .  A
C989       C1104   1.504       .  S
C990        H991   1.076       .  S
O993      Ni1001   1.919       .  S
O993       C1003   1.279       .  A
O994      Ni1001   1.922       .  S
O995      Ni1001   1.927       .  S
O995       C1005   1.281   1_565  A
O996      Ni1001   1.933       .  S
O997      Ni1002   1.926       .  S
O997       C1006   1.280       .  A
O998      Ni1002   1.930       .  S
O999      Ni1002   1.921       .  S
O999       C1004   1.282       .  A
O1000     Ni1002   1.928       .  S
C1003      C1264   1.489   1_655  S
C1004      C1284   1.489       .  S
C1005      C1277   1.486       .  S
C1006      C1307   1.488   1_655  S
O1007     Ni1015   1.929       .  S
O1007      C1017   1.280       .  A
O1008     Ni1015   1.930       .  S
O1008      C1018   1.280       .  A
O1009     Ni1015   1.923       .  S
O1009      C1019   1.280       .  A
O1010     Ni1015   1.933       .  S
O1010      C1020   1.280       .  A
O1011     Ni1016   1.934       .  S
O1011      C1020   1.283       .  A
O1012     Ni1016   1.938       .  S
O1012      C1019   1.282       .  A
O1013     Ni1016   1.922       .  S
O1013      C1018   1.281       .  A
O1014     Ni1016   1.938       .  S
O1014      C1017   1.282       .  A
Ni1015    Ni1016   2.380       .  S
C1017      C1257   1.491       .  S
C1018      C1294   1.488   1_655  S
C1019      C1234   1.498   1_655  S
C1020      C1244   1.494       .  S
C1021      C1022   1.420       .  A
C1021      C1026   1.407       .  A
C1021      C1267   1.491       .  S
C1022      C1023   1.393       .  A
C1022      C1237   1.500       .  S
C1023      C1024   1.406       .  A
C1023      H1028   1.085       .  S
C1024      C1025   1.443       .  A
C1025      C1026   1.409       .  A
C1026      H1027   1.080       .  S
C1029      C1035   1.518       .  S
C1029      C1033   1.540       .  S
C1030      H1037   1.085       .  S
C1031      C1032   1.570       .  S
C1032      C1036   1.593       .  S
C1032      C1034   1.531       .  S
C1032      H1038   1.109       .  S
C1033      H1039   1.087       .  S
C1033      C1034   1.367       .  D
C1034      C1062   1.499       .  S
C1035      H1040   1.079       .  S
C1035      C1036   1.343       .  D
C1036      C1140   1.532       .  S
C1041      C1047   1.519       .  S
C1041      C1141   1.564       .  S
C1042      H1049   1.087       .  S
C1042      C1043   1.373   1_545  D
C1043      C1044   1.522       .  S
C1044      C1046   1.564       .  S
C1044      H1050   1.108       .  S
C1045      H1051   1.086       .  S
C1045      C1046   1.385       .  D
C1046      C1061   1.491       .  S
C1047      H1052   1.078       .  S
C1047      C1048   1.347       .  D
C1053      C1054   1.471       .  A
C1053      C1058   1.409       .  A
C1054      C1055   1.399       .  A
C1055      C1056   1.393       .  A
C1055      H1060   1.084       .  S
C1056      C1057   1.421       .  A
C1056      C1214   1.494       .  S
C1057      C1058   1.404       .  A
C1057      C1224   1.497       .  S
C1058      H1059   1.079       .  S
C1061      C1062   1.436       .  A
C1061      C1066   1.409       .  A
C1062      C1063   1.408       .  A
C1063      C1064   1.395       .  A
C1063      H1068   1.085       .  S
C1064      C1065   1.412       .  A
C1064      C1204   1.483       .  S
C1065      C1066   1.391       .  A
C1065      C1194   1.485       .  S
C1066      H1067   1.085       .  S
C1069      C1070   1.420       .  A
C1069      C1074   1.397       .  A
C1069      C1184   1.488       .  S
C1070      C1071   1.394       .  A
C1070      C1174   1.492       .  S
C1071      C1072   1.401       .  A
C1071      H1076   1.084       .  S
C1072      C1073   1.459       .  A
C1072      C1077   1.535       .  S
C1073      C1074   1.402       .  A
C1073      C1099   1.519       .  S
C1074      H1075   1.085       .  S
C1077      C1083   1.479       .  S
C1078      H1085   1.086       .  S
C1078      C1079   1.380       .  D
C1079      C1080   1.587       .  S
C1080      C1082   1.572       .  S
C1080      H1086   1.100       .  S
C1081      H1087   1.086       .  S
C1081      C1082   1.372       .  D
C1083      H1088   1.066       .  S
C1083      C1084   1.322       .  D
C1089      C1090   1.467       .  A
C1089      C1094   1.406       .  A
C1090      C1091   1.407       .  A
C1091      C1092   1.395       .  A
C1091      H1096   1.085       .  S
C1092      C1093   1.411       .  A
C1092      C1164   1.480       .  S
C1093      C1094   1.391       .  A
C1093      C1154   1.485       .  S
C1094      H1095   1.085       .  S
C1097      C1098   1.549       .  S
C1097      C1103   1.480       .  S
C1098      H1105   1.086       .  S
C1098      C1099   1.379       .  D
C1099      C1100   1.556       .  S
C1100      C1104   1.540       .  S
C1100      C1102   1.581       .  S
C1100      H1106   1.091       .  S
C1101      H1107   1.087       .  S
C1103      H1108   1.063       .  S
C1103      C1104   1.323       .  D
O1109     Ni1117   1.923       .  S
O1109      C1119   1.281       .  A
O1110     Ni1117   1.935       .  S
O1111     Ni1117   1.925       .  S
O1112     Ni1117   1.917       .  S
O1112      C1122   1.280       .  A
O1113     Ni1118   1.930       .  S
O1114     Ni1118   1.924       .  S
O1114      C1121   1.281       .  A
O1115     Ni1118   1.923       .  S
O1115      C1120   1.279       .  A
O1116     Ni1118   1.923       .  S
C1119      C1197   1.481       .  S
C1120      C1167   1.484       .  S
C1121      C1227   1.491       .  S
C1122      C1177   1.488       .  S
O1123     Ni1131   1.916       .  S
O1123      C1133   1.281       .  A
O1124     Ni1131   1.923       .  S
O1124      C1134   1.279       .  A
O1125     Ni1131   1.928       .  S
O1125      C1135   1.280       .  A
O1126     Ni1131   1.923       .  S
O1126      C1136   1.280       .  A
O1127     Ni1132   1.934       .  S
O1127      C1136   1.281       .  A
O1128     Ni1132   1.927       .  S
O1128      C1135   1.281       .  A
O1129     Ni1132   1.914       .  S
O1129      C1134   1.279       .  A
O1130     Ni1132   1.916       .  S
O1130      C1133   1.277       .  A
Ni1131    Ni1132   2.383       .  S
C1133      C1187   1.483       .  S
C1134      C1217   1.484       .  S
C1135      C1157   1.486       .  S
C1136      C1207   1.483       .  S
C1137      C1138   1.413       .  A
C1137      C1142   1.388       .  A
C1137      C1287   1.489       .  S
C1138      C1139   1.403       .  A
C1138      C1247   1.490       .  S
C1139      C1140   1.411       .  A
C1139      H1144   1.083       .  S
C1140      C1141   1.481       .  A
C1141      C1142   1.405       .  A
C1142      H1143   1.081       .  S
C1145      C1146   1.411       .  A
C1145      C1150   1.396       .  A
C1145      C1274   1.483       .  S
C1146      C1147   1.393       .  A
C1146      C1254   1.487       .  S
C1147      C1148   1.409       .  A
C1147      H1152   1.085       .  S
C1148      C1149   1.441       .  A
C1149      C1150   1.410       .  A
C1150      H1151   1.085   1_565  S
C1153      C1154   1.401       .  A
C1153      C1158   1.400       .  A
C1153     Br1160   1.930       .  S
C1154      C1155   1.409       .  A
C1155      C1156   1.412       .  A
C1155     Br1162   1.925       .  S
C1156      C1157   1.412       .  A
C1156     Br1161   1.920       .  S
C1157      C1158   1.409       .  A
C1158     Br1159   1.905       .  S
C1163      C1164   1.405       .  A
C1163      C1168   1.407       .  A
C1163     Br1170   1.927       .  S
C1164      C1165   1.402       .  A
C1165      C1166   1.404       .  A
C1165     Br1172   1.931       .  S
C1166      C1167   1.410       .  A
C1167      C1168   1.410       .  A
C1168     Br1169   1.913       .  S
C1173      C1174   1.408       .  A
C1173      C1178   1.404       .  A
C1173     Br1180   1.928       .  S
C1174      C1175   1.413       .  A
C1175      C1176   1.409   1_565  A
C1176      C1177   1.409   1_545  A
C1177      C1178   1.408       .  A
C1178     Br1179   1.918       .  S
C1183      C1184   1.402       .  A
C1183      C1188   1.398       .  A
C1183     Br1190   1.930       .  S
C1184      C1185   1.415       .  A
C1185      C1186   1.411       .  A
C1185     Br1192   1.932       .  S
C1186      C1187   1.415       .  A
C1186     Br1191   1.927       .  S
C1187      C1188   1.413       .  A
C1188     Br1189   1.920       .  S
C1193      C1194   1.400       .  A
C1193      C1198   1.397       .  A
C1193     Br1200   1.928       .  S
C1194      C1195   1.411       .  A
C1195      C1196   1.414       .  A
C1195     Br1202   1.926       .  S
C1196      C1197   1.413       .  A
C1196     Br1201   1.924   1_565  S
C1197      C1198   1.407       .  A
C1203      C1204   1.407       .  A
C1203      C1208   1.406       .  A
C1203     Br1210   1.932       .  S
C1204      C1205   1.405       .  A
C1205      C1206   1.405       .  A
C1205     Br1212   1.927       .  S
C1206      C1207   1.407       .  A
C1206     Br1211   1.911       .  S
C1207      C1208   1.409       .  A
C1208     Br1209   1.906       .  S
C1213      C1214   1.416       .  A
C1213      C1218   1.407       .  A
C1213     Br1220   1.937       .  S
C1214      C1215   1.410       .  A
C1215      C1216   1.404       .  A
C1215     Br1222   1.929       .  S
C1216      C1217   1.409       .  A
C1216     Br1221   1.922       .  S
C1217      C1218   1.408       .  A
C1218     Br1219   1.907       .  S
C1223      C1224   1.403       .  A
C1223      C1228   1.400       .  A
C1223     Br1230   1.928       .  S
C1224      C1225   1.415       .  A
C1225      C1226   1.414       .  A
C1226      C1227   1.414       .  A
C1227      C1228   1.412       .  A
C1228     Br1229   1.917       .  S
C1233      C1234   1.412       .  A
C1233      C1238   1.405       .  A
C1233     Br1240   1.918       .  S
C1234      C1235   1.413       .  A
C1235      C1236   1.415       .  A
C1235     Br1242   1.914   1_455  S
C1236      C1237   1.414       .  A
C1236     Br1241   1.931       .  S
C1237      C1238   1.405       .  A
C1238     Br1239   1.927       .  S
C1243      C1244   1.411       .  A
C1243      C1248   1.413       .  A
C1243     Br1250   1.908       .  S
C1244      C1245   1.407       .  A
C1245      C1246   1.405       .  A
C1245     Br1252   1.910       .  S
C1246      C1247   1.405       .  A
C1246     Br1251   1.926       .  S
C1247      C1248   1.410       .  A
C1248     Br1249   1.931       .  S
C1253      C1254   1.406       .  A
C1253      C1258   1.408       .  A
C1253     Br1260   1.929       .  S
C1254      C1255   1.405       .  A
C1255      C1256   1.408       .  A
C1255     Br1262   1.928       .  S
C1256      C1257   1.410       .  A
C1256     Br1261   1.908       .  S
C1257      C1258   1.410       .  A
C1258     Br1259   1.906       .  S
C1263      C1264   1.412   1_545  A
C1263      C1268   1.412   1_545  A
C1264      C1265   1.411       .  A
C1265      C1266   1.403       .  A
C1265     Br1272   1.919   1_455  S
C1266      C1267   1.406       .  A
C1266     Br1271   1.930       .  S
C1267      C1268   1.412       .  A
C1268     Br1269   1.935   1_565  S
C1273      C1274   1.399       .  A
C1273      C1278   1.400       .  A
C1273     Br1280   1.928       .  S
C1274      C1275   1.408       .  A
C1275      C1276   1.412   1_565  A
C1275     Br1282   1.927       .  S
C1276      C1277   1.414       .  A
C1276     Br1281   1.919       .  S
C1277      C1278   1.411   1_545  A
C1278     Br1279   1.911       .  S
C1283      C1284   1.416       .  A
C1283      C1288   1.411       .  A
C1284      C1285   1.413       .  A
C1285      C1286   1.402       .  A
C1285     Br1292   1.919       .  S
C1286      C1287   1.403       .  A
C1286     Br1291   1.929       .  S
C1287      C1288   1.414       .  A
C1288     Br1289   1.934       .  S
C1293      C1294   1.413       .  A
C1293      C1298   1.416       .  A
C1293     Br1300   1.928   1_455  S
C1294      C1295   1.409       .  A
C1295      C1296   1.402       .  A
C1295     Br1302   1.914       .  S
C1296      C1297   1.405       .  A
C1296     Br1301   1.927       .  S
C1297      C1298   1.416       .  A
C1298     Br1299   1.927       .  S
C1303      C1304   1.404       .  A
C1303      C1308   1.405       .  A
C1303     Br1310   1.929       .  S
C1304      C1305   1.413       .  A
C1305      C1306   1.411       .  A
C1305     Br1312   1.932       .  S
C1306      C1307   1.408       .  A
C1306     Br1311   1.911       .  S
C1307      C1308   1.407       .  A
C1308     Br1309   1.904   1_455  S
