geometry optimzed in LAMMPS
_audit_creation_date              2020-12-01 
_audit_creation_method            'lammps2cif' 
_symmetry_space_group_name_H-M    'P1' 
_symmetry_Int_Tables_number       1 
_symmetry_cell_setting            triclinic 
loop_ 
_symmetry_equiv_pos_as_xyz 
  x,y,z 
_cell_length_a                    41.39403106 
_cell_length_b                    41.096447848969675 
_cell_length_c                    33.18163994994317 
_cell_angle_alpha                 90.13439250339802 
_cell_angle_beta                  89.5308041753401 
_cell_angle_gamma                 90.04188092739206 
loop_ 
_atom_site_label 
_atom_site_type_symbol 
_atom_site_fract_x 
_atom_site_fract_y 
_atom_site_fract_z 
_atom_site_charge 
O1          O  0.03266075  0.86062842  0.03926281    -0.73100
O2          O  0.96742949  0.78827472  0.03051787    -0.74100
O3          O  0.03596282  0.79171192  0.03940207    -0.62700
O4          O  0.96468876  0.85689071  0.03238104    -0.71200
O5          O  0.96889443  0.85795973  0.46758254    -0.70700
O6          O  0.04157728  0.79243656  0.47315738    -0.62000
O7          O  0.97310585  0.78923806  0.46281069    -0.74500
O8          O  0.03662341  0.86082305  0.47477989    -0.73300
Cu9        Cu  0.00003918  0.82424448  0.03776191     1.04600
Cu10       Cu  0.00526682  0.82504959  0.46726502     1.04300
C11         C  0.04460804  0.87111567  0.50951233     0.93000
C12         C  0.95981188  0.77790431  0.99547966     0.92200
C13         C  0.05008718  0.78123230  0.50750218     0.84300
C14         C  0.95526835  0.86745245  0.99829563     0.90600
O15         O  0.84041202  0.97623316  0.03114940    -0.73100
O16         O  0.77184344  0.04589056  0.02108436    -0.74100
O17         O  0.77199473  0.97678376  0.02989549    -0.62700
O18         O  0.83995601  0.04485237  0.02559453    -0.71200
O19         O  0.84195428  0.04313188  0.46385396    -0.70700
O20         O  0.77507584  0.97139579  0.46539773    -0.62000
O21         O  0.77422964  0.04100404  0.45694352    -0.74500
O22         O  0.84311327  0.97458305  0.46932858    -0.73300
Cu23       Cu  0.80588492  0.01109480  0.02920756     1.04600
Cu24       Cu  0.80860882  0.00734433  0.46160937     1.04300
C25         C  0.85302762  0.96532577  0.50371770     0.93000
C26         C  0.76304024  0.05465170  0.98582448     0.92200
C27         C  0.76327092  0.96209694  0.49931711     0.84300
C28         C  0.85143551  0.05506714  0.99223932     0.90600
O29         O  0.03391871  0.22850781  0.03827190    -0.73100
O30         O  0.96275102  0.16128051  0.03517546    -0.74100
O31         O  0.03142562  0.16019345  0.03708487    -0.62700
O32         O  0.96435391  0.23019816  0.03886814    -0.71200
O33         O  0.96314612  0.23226860  0.47111868    -0.70700
O34         O  0.03229831  0.16276192  0.47039496    -0.62000
O35         O  0.96378901  0.16416224  0.46791147    -0.74500
O36         O  0.03273718  0.23135752  0.47127072    -0.73300
Cu37       Cu  0.99804528  0.19514660  0.03969992     1.04600
Cu38       Cu  0.99802597  0.19784224  0.46782289     1.04300
C39         C  0.04578801  0.23914138  0.00507222     0.93000
C40         C  0.95150114  0.15300773  0.50034004     0.92200
C41         C  0.04382883  0.15024268  0.00401589     0.84300
C42         C  0.95162998  0.24185751  0.50503477     0.90600
O43         O  0.15863888  0.04484055  0.03835027    -0.73100
O44         O  0.22733518  0.97493956  0.03630459    -0.74100
O45         O  0.22682127  0.04419226  0.03982059    -0.62700
O46         O  0.15901933  0.97611838  0.03754263    -0.71200
O47         O  0.15540169  0.97868696  0.47454332    -0.70700
O48         O  0.22624812  0.04614375  0.47693511    -0.62000
O49         O  0.22322360  0.97699943  0.47246396    -0.74500
O50         O  0.15767857  0.04747900  0.47597659    -0.73300
Cu51       Cu  0.19305196  0.00995901  0.04036880     1.04600
Cu52       Cu  0.19070452  0.01243848  0.47263482     1.04300
C53         C  0.14647473  0.05805309  0.50939186     0.93000
C54         C  0.23694730  0.96399771  0.00209254     0.92200
C55         C  0.23600238  0.05647789  0.51119070     0.84300
C56         C  0.14792939  0.96571650  0.00421884     0.90600
C57         C  0.18678575  0.64880225  0.47048857     0.86300
C58         C  0.15684897  0.67085239  0.47399823    -0.54000
C59         C  0.15665724  0.69085670  0.00616791     0.09200
C60         C  0.18675469  0.68778104  0.03298248     0.20200
C61         C  0.21455558  0.67354875  0.46970113    -0.54700
C62         C  0.21529714  0.69317315  0.00341389     0.09300
C63         C  0.18863856  0.63157042  0.51125459    -0.54200
C64         C  0.18844024  0.65135283  0.04396594     0.09900
H65         H  0.13776637  0.67209591  0.45187073     0.14400
H66         H  0.18654622  0.70431427  0.05949238     0.00100
H67         H  0.23087789  0.67589937  0.44412170     0.14700
H68         H  0.18925299  0.60471868  0.01427127     0.14500
C69         C  0.35777346  0.81834970  0.04302358     0.86300
C70         C  0.33891231  0.85009398  0.03727369    -0.54000
C71         C  0.32020853  0.85429332  0.50324746     0.09200
C72         C  0.32247613  0.82267389  0.47766680     0.20200
C73         C  0.33069363  0.79292545  0.04231438    -0.54700
C74         C  0.31182023  0.79588036  0.50763882     0.09300
C75         C  0.37704847  0.81319047  0.00407052    -0.54200
C76         C  0.35893480  0.81689922  0.47040218     0.09900
H77         H  0.33787752  0.86860601  0.06055749     0.14400
H78         H  0.30921175  0.82235425  0.44903838     0.00100
H79         H  0.32536412  0.77629198  0.06687175     0.14700
H80         H  0.40244858  0.81215730  0.50476885     0.14500
N81         N  0.50175925  0.80017710  0.19283745    -0.36800
N82         N  0.44985435  0.80795508  0.25395112    -0.57400
N83         N  0.49753220  0.80568264  0.31522379    -0.36800
N84         N  0.54964725  0.80040591  0.25458280    -0.57400
C85         C  0.47644882  0.80848846  0.16956491     0.26800
C86         C  0.52895097  0.80396325  0.17018512     0.26800
C87         C  0.47152450  0.81580546  0.33694092     0.26800
C88         C  0.52403787  0.81268153  0.33705910     0.26800
C89         C  0.43184387  0.80314384  0.22080503     0.35400
C90         C  0.42965459  0.80523821  0.28606069     0.35400
C91         C  0.56880108  0.79171409  0.22313230     0.35400
C92         C  0.56629204  0.79381208  0.28836968     0.35400
C93         C  0.48771445  0.81695060  0.13139936    -0.22100
C94         C  0.52074518  0.81435454  0.13193644    -0.18100
C95         C  0.48160422  0.82944947  0.37289550    -0.22100
C96         C  0.51475530  0.82778572  0.37282984    -0.22100
C97         C  0.39987295  0.79769941  0.23187698    -0.23200
C98         C  0.39854066  0.79886911  0.27332842    -0.23100
C99         C  0.59786695  0.77962857  0.23685574    -0.23200
C100        C  0.59618584  0.78066026  0.27830387    -0.23100
C101        C  0.44334950  0.80644206  0.18077274    -0.18500
C102        C  0.56083672  0.79656215  0.18233508    -0.18500
C103        C  0.55588832  0.80232752  0.32776290    -0.18500
C104        C  0.43887943  0.81097200  0.32633400    -0.18500
H105        H  0.47373538  0.82385097  0.10539549     0.14400
H106        H  0.53681185  0.81904514  0.10670882     0.14400
H107        H  0.46660655  0.83921880  0.39689794     0.14400
H108        H  0.53020472  0.83586967  0.39703354     0.14400
H109        H  0.37954511  0.79374932  0.21215040     0.12700
H110        H  0.37709110  0.79610313  0.29187826     0.12700
H111        H  0.61807429  0.77102546  0.21888381     0.12700
H112        H  0.61503269  0.77310022  0.29865207     0.12700
H113        H  0.50006677  0.78920105  0.22093517     0.26000
H114        H  0.49713981  0.79078219  0.28985966     0.26000
C115        C  0.64056968  0.81507598  0.46666332     0.86300
C116        C  0.65700764  0.84826446  0.47170723    -0.54000
C117        C  0.67812496  0.85012879  0.00484303     0.09200
C118        C  0.67775834  0.81904014  0.03152603     0.20200
C119        C  0.66784862  0.79020428  0.46720630    -0.54700
C120        C  0.68756270  0.79114334  0.00225432     0.09300
C121        C  0.62262224  0.81035153  0.50710381    -0.54200
C122        C  0.64158342  0.81244108  0.04115409     0.09900
H123        H  0.65412053  0.86829491  0.45081055     0.14400
H124        H  0.69227699  0.82099301  0.05904928     0.00100
H125        H  0.67148525  0.77327991  0.44239402     0.14700
H126        H  0.59696323  0.80676717  0.00953439     0.14500
C127        C  0.82131494  0.65186427  0.03259800     0.86300
C128        C  0.85165212  0.67246181  0.02491905    -0.54000
C129        C  0.84891962  0.69273263  0.49280836     0.09200
C130        C  0.81704104  0.68947203  0.46899347     0.20200
C131        C  0.79340523  0.67594749  0.03479826    -0.54700
C132        C  0.79027637  0.69546855  0.50103841     0.09300
C133        C  0.81715174  0.63379333  0.99226887    -0.54200
C134        C  0.81460827  0.65286686  0.45883027     0.09900
H135        H  0.87359708  0.67020465  0.04205495     0.14400
H136        H  0.81529324  0.70496542  0.44179025     0.00100
H137        H  0.77661736  0.67717016  0.06013123     0.14700
H138        H  0.81562192  0.60692336  0.48927599     0.14500
C139        C  0.35838153  0.19655810  0.45413034     0.86300
C140        C  0.34154092  0.16387269  0.46350642    -0.54000
C141        C  0.32327111  0.16514136  0.99733943     0.09200
C142        C  0.32320223  0.19787863  0.02029534     0.20200
C143        C  0.33026972  0.22066530  0.45412155    -0.54700
C144        C  0.31182126  0.22310084  0.98878756     0.09300
C145        C  0.37779027  0.20382097  0.49237576    -0.54200
C146        C  0.35940213  0.20523487  0.02677834     0.09900
H147        H  0.34108529  0.14314006  0.44355522     0.14400
H148        H  0.30875218  0.19787856  0.04862894     0.00100
H149        H  0.32531028  0.23677255  0.42898998     0.14700
H150        H  0.40309888  0.20861712  0.99144423     0.14500
C151        C  0.18636218  0.36718408  0.03808112     0.86300
C152        C  0.15779663  0.34361422  0.03725950    -0.54000
C153        C  0.15720814  0.32223508  0.50541731     0.09200
C154        C  0.18546837  0.32750022  0.47556298     0.20200
C155        C  0.21549967  0.34400486  0.03425791    -0.54700
C156        C  0.21592461  0.32284152  0.50171665     0.09300
C157        C  0.18564450  0.38548224  0.99786062    -0.54200
C158        C  0.18475016  0.36429981  0.46591815     0.09900
H159        H  0.14043863  0.34136384  0.06181413     0.14400
H160        H  0.18430894  0.31142998  0.44869596     0.00100
H161        H  0.23360832  0.34045716  0.05711544     0.14700
H162        H  0.18615024  0.40988966  0.49761990     0.14500
N163        N  0.18636226  0.50443761  0.31502957    -0.36800
N164        N  0.18355941  0.45752709  0.25188061    -0.57400
N165        N  0.18379978  0.51165692  0.19333710    -0.36800
N166        N  0.18926853  0.55842976  0.25682190    -0.57400
C167        C  0.19184548  0.47668901  0.33589512     0.26800
C168        C  0.19528896  0.52954509  0.33879541     0.26800
C169        C  0.18914818  0.48587392  0.16891254     0.26800
C170        C  0.19060856  0.53878430  0.17170078     0.26800
C171        C  0.17772369  0.43699236  0.28290766     0.35400
C172        C  0.17762218  0.44078991  0.21777694     0.35400
C173        C  0.18577483  0.57562505  0.29121500     0.35400
C174        C  0.18435351  0.57949908  0.22623759     0.35400
C175        C  0.20466458  0.48424320  0.37316645    -0.22100
C176        C  0.20661481  0.51752129  0.37516515    -0.22100
C177        C  0.19923645  0.49678284  0.13124043    -0.22100
C178        C  0.20002787  0.53012925  0.13298696    -0.22100
C179        C  0.16826347  0.40685525  0.26850632    -0.23200
C180        C  0.16836151  0.40919970  0.22709660    -0.23100
C181        C  0.17945299  0.60800133  0.28240572    -0.23200
C182        C  0.17841972  0.61040531  0.24113230    -0.23100
C183        C  0.18285043  0.44494868  0.32375765    -0.18500
C184        C  0.19011258  0.56289621  0.33031201    -0.18500
C185        C  0.18659783  0.57123307  0.18508710    -0.18500
C186        C  0.18295719  0.45288295  0.17844780    -0.18500
H187        H  0.21105788  0.46754013  0.39697803     0.14400
H188        H  0.21472355  0.53107907  0.40112936     0.14400
H189        H  0.20493479  0.48225973  0.10487626     0.14400
H190        H  0.20650271  0.54618608  0.10839656     0.14400
H191        H  0.16247952  0.38536293  0.28592634     0.12700
H192        H  0.16265928  0.38979368  0.20621589     0.12700
H193        H  0.17612250  0.62786936  0.30349225     0.12700
H194        H  0.17403244  0.63235400  0.22406918     0.12700
H195        H  0.17285785  0.50654652  0.28887124     0.26000
H196        H  0.17240915  0.51076128  0.22132751     0.26000
N197        N  0.49850270  0.20435704  0.17930431    -0.36800
N198        N  0.55085233  0.20859899  0.23889449    -0.57400
N199        N  0.50309804  0.21038592  0.30106461    -0.36800
N200        N  0.45090054  0.20370863  0.24087590    -0.57400
C201        C  0.52472972  0.19599438  0.15721511     0.26800
C202        C  0.47213509  0.19562846  0.15785647     0.26800
C203        C  0.53019746  0.20556275  0.32300726     0.26800
C204        C  0.47770182  0.20100128  0.32410160     0.26800
C205        C  0.56762883  0.21420054  0.20463036     0.35400
C206        C  0.57025860  0.21737926  0.26967941     0.35400
C207        C  0.43093063  0.20836741  0.20933205     0.35400
C208        C  0.43334746  0.20939076  0.27450039     0.35400
C209        C  0.51491532  0.18123754  0.12161766    -0.22100
C210        C  0.48167340  0.18129298  0.12189339    -0.22100
C211        C  0.52187780  0.19321341  0.36047012    -0.22100
C212        C  0.48877578  0.19024813  0.36114815    -0.22100
C213        C  0.59793100  0.22664812  0.21372066    -0.23200
C214        C  0.59967106  0.22837295  0.25505856    -0.23100
C215        C  0.40036960  0.21679606  0.22292977    -0.23200
C216        C  0.40184046  0.21725961  0.26438806    -0.23100
C217        C  0.55680178  0.20571267  0.16566148    -0.18500
C218        C  0.43983425  0.20264453  0.16878847    -0.18500
C219        C  0.44469886  0.20450698  0.31402684    -0.18500
C220        C  0.56208130  0.21347664  0.31070816    -0.18500
H221        H  0.53013945  0.17255918  0.09719521     0.14400
H222        H  0.46628220  0.17235510  0.09807529     0.14400
H223        H  0.53797546  0.18707234  0.38483885     0.14400
H224        H  0.47444036  0.18155892  0.38633886     0.14400
H225        H  0.61702202  0.23332248  0.19285065     0.12700
H226        H  0.62020343  0.23657013  0.27234189     0.12700
H227        H  0.37917211  0.22140476  0.20494471     0.12700
H228        H  0.38193405  0.22237967  0.28477776     0.12700
H229        H  0.49873536  0.21953717  0.20436549     0.26000
H230        H  0.50154754  0.22291403  0.27390791     0.26000
C231        C  0.64168523  0.19941154  0.02528659     0.86300
C232        C  0.65593631  0.16545202  0.01779582    -0.54000
C233        C  0.67557013  0.16409725  0.48327280     0.09200
C234        C  0.67894924  0.19708653  0.46080184     0.20200
C235        C  0.67041373  0.22249374  0.02538494    -0.54700
C236        C  0.69044922  0.22137831  0.49360408     0.09300
C237        C  0.62376437  0.20654189  0.98572692    -0.54200
C238        C  0.64351593  0.20684876  0.45152148     0.09900
H239        H  0.65204961  0.14543013  0.03840250     0.14400
H240        H  0.69500655  0.19663228  0.43391889     0.00100
H241        H  0.67489926  0.23972878  0.04961166     0.14700
H242        H  0.59877333  0.21306122  0.48355949     0.14500
C243        C  0.81540799  0.37055749  0.46196988     0.86300
C244        C  0.84593871  0.35000908  0.46918798    -0.54000
C245        C  0.84393999  0.32826642  0.00347189     0.09200
C246        C  0.81050399  0.32918714  0.02478787     0.20200
C247        C  0.78846886  0.34500146  0.46013056    -0.54700
C248        C  0.78569836  0.32298089  0.99064082     0.09300
C249        C  0.81058429  0.38868475  0.50212285    -0.54200
C250        C  0.80575081  0.36540210  0.03629891     0.09900
H251        H  0.86726138  0.34928018  0.45029782     0.14400
H252        H  0.80833261  0.31230668  0.05073670     0.00100
H253        H  0.77352374  0.34191217  0.43367226     0.14700
H254        H  0.80745849  0.41230377  0.00751237     0.14500
N255        N  0.81194283  0.51443882  0.30683471    -0.36800
N256        N  0.81248195  0.45981893  0.24852138    -0.57400
N257        N  0.80987675  0.50587621  0.18544510    -0.36800
N258        N  0.81190821  0.56059819  0.24389049    -0.57400
C259        C  0.82112808  0.48919968  0.32991962     0.26800
C260        C  0.81873832  0.54197166  0.32763203     0.26800
C261        C  0.81636928  0.47826078  0.16436529     0.26800
C262        C  0.81857300  0.53127921  0.16198465     0.26800
C263        C  0.80718592  0.44375427  0.28323239     0.35400
C264        C  0.80478052  0.43906048  0.21844243     0.35400
C265        C  0.80518096  0.58121796  0.27468778     0.35400
C266        C  0.80522539  0.57663749  0.20964004     0.35400
C267        C  0.83398160  0.50077093  0.36573031    -0.22100
C268        C  0.83234865  0.53412954  0.36432769    -0.22100
C269        C  0.82925998  0.48618944  0.12704128    -0.22100
C270        C  0.83100217  0.51962345  0.12567473    -0.22100
C271        C  0.79635432  0.41244030  0.27529161    -0.23200
C272        C  0.79458182  0.40955612  0.23405228    -0.23100
C273        C  0.79433780  0.61069312  0.26008751    -0.23200
C274        C  0.79422517  0.60777687  0.21873132    -0.23100
C275        C  0.81473502  0.45614699  0.32164022    -0.18500
C276        C  0.81058210  0.57378618  0.31550742    -0.18500
C277        C  0.81188414  0.56448475  0.17050091    -0.18500
C278        C  0.80914359  0.44623187  0.17727913    -0.18500
H279        H  0.84280585  0.48659690  0.39078563     0.14400
H280        H  0.83984059  0.55069821  0.38787882     0.14400
H281        H  0.83644116  0.46961244  0.10320593     0.14400
H282        H  0.83951319  0.53376685  0.10024249     0.14400
H283        H  0.79077845  0.39354742  0.29693455     0.12700
H284        H  0.78738346  0.38806217  0.21747987     0.12700
H285        H  0.78754342  0.63202888  0.27735315     0.12700
H286        H  0.78728134  0.62659878  0.19776094     0.12700
H287        H  0.79776343  0.51264834  0.28117732     0.26000
H288        H  0.79632240  0.50756936  0.21188794     0.26000
C289        C  0.82549530  0.37418533  0.10629496    -0.20500
C290        C  0.80100816  0.37867140  0.07788123    -0.07100
C291        C  0.77626597  0.40146945  0.08648610     0.13800
C292        C  0.77899306  0.42212269  0.12000654    -0.20600
C293        C  0.80538782  0.42009170  0.14608204    -0.07100
C294        C  0.82835333  0.39495037  0.14002198     0.13800
C295        C  0.85697728  0.39125124  0.16736505    -0.23900
H296        H  0.84360389  0.35579051  0.10070971     0.15100
H297        H  0.76075709  0.44062043  0.12525788     0.15100
C298        C  0.74670296  0.40458710  0.06073355    -0.23900
H299        H  0.87329821  0.37141697  0.15702402     0.05300
H300        H  0.84882369  0.38524247  0.19835239     0.08500
H301        H  0.87107049  0.41423246  0.16794830     0.08500
H302        H  0.74561618  0.38538039  0.03740139     0.08500
H303        H  0.74642110  0.42880536  0.04599601     0.08500
H304        H  0.72472056  0.40199087  0.07987431     0.05300
C305        C  0.84196043  0.39421628  0.39795695    -0.20500
C306        C  0.81526470  0.39324267  0.42500711    -0.07100
C307        C  0.78815314  0.41360548  0.41630767     0.13800
C308        C  0.78880451  0.43336613  0.38205558    -0.20600
C309        C  0.81524142  0.43353558  0.35592847    -0.07100
C310        C  0.84220777  0.41409908  0.36381203     0.13800
C311        C  0.87152434  0.41494150  0.33649869    -0.23900
H312        H  0.86316913  0.37977766  0.40237742     0.15100
H313        H  0.76842559  0.44896202  0.37532276     0.15100
C314        C  0.75770788  0.41478027  0.44162576    -0.23900
H315        H  0.89089914  0.39844632  0.34709768     0.05300
H316        H  0.88145712  0.44003802  0.33543746     0.08500
H317        H  0.86477466  0.40727826  0.30559189     0.08500
H318        H  0.76264958  0.42192727  0.47307598     0.08500
H319        H  0.74541921  0.39109369  0.44032193     0.08500
H320        H  0.74013144  0.43284753  0.43008269     0.05300
C321        C  0.76882561  0.26580102  0.00551580    -0.20500
C322        C  0.76077232  0.29653575  0.99015474    -0.07100
C323        C  0.72913324  0.30293560  0.47902662     0.13800
C324        C  0.70890550  0.27588164  0.47402997    -0.20600
C325        C  0.71703996  0.24549084  0.48969156    -0.07100
C326        C  0.74657910  0.23989260  0.00517993     0.13800
C327        C  0.75514624  0.20856343  0.02592397    -0.23900
H328        H  0.79242713  0.26209382  0.01851841     0.15100
H329        H  0.68507185  0.27927578  0.46131112     0.15100
C330        C  0.71450949  0.33572798  0.47092962    -0.23900
H331        H  0.77931986  0.20985554  0.04012382     0.05300
H332        H  0.75623837  0.19072880  0.51043733     0.08500
H333        H  0.73709798  0.20307889  0.04989258     0.08500
H334        H  0.71264786  0.33974956  0.43796197     0.08500
H335        H  0.72164295  0.35190440  0.98877207     0.08500
H336        H  0.68992256  0.33703073  0.48451480     0.05300
C337        C  0.60889198  0.23861774  0.40449618    -0.20500
C338        C  0.62877195  0.21129390  0.41060894    -0.07100
C339        C  0.62941884  0.18668892  0.38053058     0.13800
C340        C  0.60918845  0.18935018  0.34664715    -0.20600
C341        C  0.58781261  0.21557555  0.34221079    -0.07100
C342        C  0.58853953  0.24108628  0.37086772     0.13800
C343        C  0.56745748  0.27081701  0.36741206    -0.23900
H344        H  0.60820582  0.25767128  0.42715532     0.15100
H345        H  0.60856202  0.16982742  0.32464424     0.15100
C346        C  0.64927709  0.15629109  0.38520416    -0.23900
H347        H  0.58281418  0.29298165  0.36756454     0.05300
H348        H  0.55047128  0.27186253  0.39345154     0.08500
H349        H  0.55316684  0.27113732  0.33930198     0.08500
H350        H  0.64218071  0.14359664  0.41334650     0.08500
H351        H  0.67532645  0.16243234  0.38577108     0.08500
H352        H  0.64559730  0.13906532  0.35981031     0.05300
C353        C  0.59518692  0.22451449  0.06433404    -0.20500
C354        C  0.62167487  0.20296459  0.06389357    -0.07100
C355        C  0.63000643  0.18750598  0.10074247     0.13800
C356        C  0.60767408  0.18752328  0.13258016    -0.20600
C357        C  0.58002605  0.20705696  0.13147495    -0.07100
C358        C  0.57486619  0.22742425  0.09794189     0.13800
C359        C  0.54851610  0.25277218  0.09673489    -0.23900
H360        H  0.59065062  0.24022430  0.03889576     0.15100
H361        H  0.61261845  0.17332541  0.15934391     0.15100
C362        C  0.66258960  0.17264466  0.10922380    -0.23900
H363        H  0.55936616  0.27694079  0.09026717     0.05300
H364        H  0.53502063  0.25507910  0.12556297     0.08500
H365        H  0.53117696  0.24665329  0.07250863     0.08500
H366        H  0.68105861  0.17821013  0.08598103     0.08500
H367        H  0.66015567  0.14588427  0.11263091     0.08500
H368        H  0.67208101  0.18285911  0.13780784     0.05300
C369        C  0.20405174  0.39603435  0.36028525    -0.20500
C370        C  0.17964538  0.41949634  0.35582920    -0.07100
C371        C  0.15478940  0.42142557  0.38520983     0.13800
C372        C  0.15613447  0.40153917  0.41948375    -0.20600
C373        C  0.18148512  0.37933092  0.42522061    -0.07100
C374        C  0.20528294  0.37592518  0.39469028     0.13800
C375        C  0.23316371  0.35281774  0.39952877    -0.23900
H376        H  0.22314839  0.39469733  0.33781138     0.15100
H377        H  0.13794927  0.40434402  0.44290948     0.15100
C378        C  0.12716134  0.44503677  0.38091446    -0.23900
H379        H  0.25025749  0.35415277  0.37361749     0.05300
H380        H  0.22414517  0.32745865  0.40148099     0.08500
H381        H  0.24665940  0.35892632  0.42728174     0.08500
H382        H  0.11441164  0.44026071  0.35219509     0.08500
H383        H  0.13618683  0.47044783  0.38101908     0.08500
H384        H  0.10937692  0.44266904  0.40598952     0.05300
C385        C  0.21262643  0.39359663  0.09947236    -0.20500
C386        C  0.18527508  0.39017573  0.07456218    -0.07100
C387        C  0.15738022  0.40939664  0.08384452     0.13800
C388        C  0.15679952  0.42801842  0.11929938    -0.20600
C389        C  0.18355548  0.42955804  0.14454915    -0.07100
C390        C  0.21204745  0.41298505  0.13410417     0.13800
C391        C  0.24228926  0.41687047  0.15873336    -0.23900
H392        H  0.23535801  0.38251994  0.09165034     0.15100
H393        H  0.13570382  0.44249889  0.12685309     0.15100
C394        C  0.12841548  0.41204672  0.05640511    -0.23900
H395        H  0.26273664  0.40249198  0.14615861     0.05300
H396        H  0.23773206  0.40853232  0.19005601     0.08500
H397        H  0.24967151  0.44285159  0.15925018     0.08500
H398        H  0.11540023  0.38868845  0.05366984     0.08500
H399        H  0.13581324  0.42077594  0.02617606     0.08500
H400        H  0.11046852  0.42985999  0.06813143     0.05300
C401        C  0.23106207  0.26495924  0.48931256    -0.20500
C402        C  0.24096476  0.29727934  0.49535070    -0.07100
C403        C  0.27385260  0.30544468  0.00183286     0.13800
C404        C  0.29565207  0.27941888  0.00314097    -0.20600
C405        C  0.28592829  0.24756400  0.99446906    -0.07100
C406        C  0.25359837  0.23935111  0.48735857     0.13800
C407        C  0.24134916  0.20603219  0.47638399    -0.23900
H408        H  0.20556308  0.25960492  0.48601361     0.15100
H409        H  0.32098983  0.28430837  0.00873048     0.15100
C410        C  0.28771881  0.33924536  0.00604390    -0.23900
H411        H  0.22819214  0.20732754  0.44740291     0.05300
H412        H  0.22321307  0.19934791  0.99029571     0.08500
H413        H  0.26105292  0.18812895  0.47233350     0.08500
H414        H  0.29759527  0.34249686  0.03680220     0.08500
H415        H  0.26944339  0.35721967  0.49656879     0.08500
H416        H  0.30760000  0.34252118  0.98373176     0.05300
C417        C  0.37330383  0.18133341  0.09335411    -0.20500
C418        C  0.37541570  0.20783950  0.06681820    -0.07100
C419        C  0.39635832  0.23396544  0.07647961     0.13800
C420        C  0.41615381  0.23181789  0.11056311    -0.20600
C421        C  0.41523025  0.20461843  0.13603018    -0.07100
C422        C  0.39298344  0.17931272  0.12773361     0.13800
C423        C  0.39035845  0.14924113  0.15337978    -0.23900
H424        H  0.35745295  0.16117674  0.08605674     0.15100
H425        H  0.43289880  0.25142077  0.11704379     0.15100
C426        C  0.39828726  0.26459711  0.05172743    -0.23900
H427        H  0.39591465  0.12745265  0.13473154     0.05300
H428        H  0.36533923  0.14708104  0.16540252     0.08500
H429        H  0.40710959  0.14944317  0.17924140     0.08500
H430        H  0.38004659  0.26529269  0.02757514     0.08500
H431        H  0.42274692  0.26685909  0.03802187     0.08500
H432        H  0.39373836  0.28600193  0.07145296     0.05300
C433        C  0.41573338  0.22978195  0.37119942    -0.20500
C434        C  0.42072068  0.20233927  0.34719114    -0.07100
C435        C  0.40471434  0.17310631  0.35658142     0.13800
C436        C  0.38464634  0.17179973  0.39069454    -0.20600
C437        C  0.37953081  0.19916866  0.41590921    -0.07100
C438        C  0.39543474  0.22889601  0.40514332     0.13800
C439        C  0.39250910  0.26057886  0.42811962    -0.23900
H440        H  0.42828832  0.25216017  0.36359579     0.15100
H441        H  0.37381785  0.14859531  0.39703900     0.15100
C442        C  0.40873437  0.14257524  0.33169562    -0.23900
H443        H  0.38250462  0.27953620  0.40795266     0.05300
H444        H  0.41681064  0.26847721  0.43818070     0.08500
H445        H  0.37692706  0.25967197  0.45504745     0.08500
H446        H  0.42512473  0.14576105  0.30543602     0.08500
H447        H  0.38481977  0.13478530  0.32019663     0.08500
H448        H  0.41872719  0.12289984  0.35077035     0.05300
C449        C  0.83381946  0.62107669  0.35313452    -0.20500
C450        C  0.80791580  0.59945500  0.34740440    -0.07100
C451        C  0.78251254  0.59882430  0.37619962     0.13800
C452        C  0.78440237  0.61844735  0.41072798    -0.20600
C453        C  0.81111473  0.63863195  0.41774059    -0.07100
C454        C  0.83589762  0.64045682  0.38820319     0.13800
C455        C  0.86564422  0.66080398  0.39494415    -0.23900
H456        H  0.85350195  0.62115874  0.33139155     0.15100
H457        H  0.76548628  0.61678889  0.43344488     0.15100
C458        C  0.75369765  0.57662870  0.37236422    -0.23900
H459        H  0.88316411  0.65848538  0.36957039     0.05300
H460        H  0.87787464  0.65283207  0.42288671     0.08500
H461        H  0.85891079  0.68683044  0.39772489     0.08500
H462        H  0.75332511  0.55919258  0.39788800     0.08500
H463        H  0.75372170  0.56254824  0.34383963     0.08500
H464        H  0.73120323  0.59131791  0.37331966     0.05300
C465        C  0.83452284  0.61392402  0.13798463    -0.20500
C466        C  0.81281875  0.58781708  0.13646200    -0.07100
C467        C  0.79255621  0.58437282  0.10279322     0.13800
C468        C  0.79733746  0.60462692  0.06961663    -0.20600
C469        C  0.82050563  0.62983097  0.06962224    -0.07100
C470        C  0.83685501  0.63642326  0.10644442     0.13800
C471        C  0.85359593  0.66814724  0.11584066    -0.23900
H472        H  0.84879816  0.61753555  0.16489919     0.15100
H473        H  0.78153299  0.60146846  0.04403589     0.15100
C474        C  0.76503429  0.56032227  0.10118998    -0.23900
H475        H  0.85229415  0.67352932  0.14865954     0.05300
H476        H  0.84155316  0.68891050  0.10084838     0.08500
H477        H  0.87957245  0.66668064  0.10761838     0.08500
H478        H  0.76134109  0.54698536  0.12982999     0.08500
H479        H  0.76955684  0.54241184  0.07669024     0.08500
H480        H  0.74220995  0.57348054  0.09487637     0.05300
C481        C  0.70902945  0.73552663  0.48819728    -0.20500
C482        C  0.71423750  0.76656004  0.00720446    -0.07100
C483        C  0.74498598  0.77345322  0.02411505     0.13800
C484        C  0.76953658  0.74988796  0.02156096    -0.20600
C485        C  0.76468698  0.72038628  0.49911008    -0.07100
C486        C  0.73391892  0.71265572  0.48447213     0.13800
C487        C  0.72725783  0.68005237  0.46538411    -0.23900
H488        H  0.68523387  0.72874810  0.47775333     0.15100
H489        H  0.79245361  0.75428914  0.03612976     0.15100
C490        C  0.75294820  0.80490505  0.04511648    -0.23900
H491        H  0.70181410  0.67790569  0.45534237     0.05300
H492        H  0.73267278  0.66017053  0.98919937     0.08500
H493        H  0.74322311  0.67674299  0.43865267     0.08500
H494        H  0.74052214  0.80588342  0.07478340     0.08500
H495        H  0.74651969  0.82647377  0.51998745     0.08500
H496        H  0.77921820  0.80706771  0.05120501     0.05300
C497        C  0.60617888  0.82490977  0.14688079    -0.20500
C498        C  0.58703246  0.79687454  0.15086968    -0.07100
C499        C  0.58964436  0.77212701  0.12140255     0.13800
C500        C  0.60975305  0.77690703  0.08751251    -0.20600
C501        C  0.62710669  0.80603708  0.08190479    -0.07100
C502        C  0.62587664  0.82995511  0.11259527     0.13800
C503        C  0.64294360  0.86197785  0.10780182    -0.23900
H504        H  0.60393497  0.84394469  0.16939530     0.15100
H505        H  0.61069390  0.75844101  0.06414308     0.15100
C506        C  0.57042399  0.74112833  0.12510023    -0.23900
H507        H  0.66936412  0.85803655  0.10511673     0.05300
H508        H  0.63860350  0.87832200  0.13399390     0.08500
H509        H  0.63379175  0.87431757  0.08048687     0.08500
H510        H  0.57554470  0.72417630  0.09972156     0.08500
H511        H  0.54417626  0.74657064  0.12508468     0.08500
H512        H  0.57666305  0.72867176  0.15364656     0.05300
C513        C  0.60689646  0.82185871  0.35852666    -0.20500
C514        C  0.57957817  0.80192341  0.36120086    -0.07100
C515        C  0.57446963  0.78326167  0.39636067     0.13800
C516        C  0.59417075  0.78852826  0.42980226    -0.20600
C517        C  0.62022724  0.81065478  0.42862121    -0.07100
C518        C  0.62874720  0.82412439  0.39037871     0.13800
C519        C  0.66127786  0.83854512  0.38023144    -0.23900
H520        H  0.61193202  0.83473250  0.33067052     0.15100
H521        H  0.58957216  0.77413874  0.45650286     0.15100
C522        C  0.54873449  0.75736551  0.39947602    -0.23900
H523        H  0.67047214  0.82776174  0.35162175     0.05300
H524        H  0.67970703  0.83279450  0.40284512     0.08500
H525        H  0.65916911  0.86527118  0.37628295     0.08500
H526        H  0.53562869  0.75351882  0.37086824     0.08500
H527        H  0.53099884  0.76410135  0.42334360     0.08500
H528        H  0.56010681  0.73381902  0.40752881     0.05300
C529        C  0.37568153  0.83974977  0.40374498    -0.20500
C530        C  0.37479070  0.81303561  0.43009006    -0.07100
C531        C  0.39265084  0.78475077  0.41984521     0.13800
C532        C  0.41191521  0.78448219  0.38479160    -0.20600
C533        C  0.41402214  0.81165167  0.35941077    -0.07100
C534        C  0.39531908  0.83956828  0.36877208     0.13800
C535        C  0.39672723  0.87003636  0.34368448    -0.23900
H536        H  0.36235693  0.86159364  0.41164440     0.15100
H537        H  0.42626502  0.76310306  0.37778534     0.15100
C538        C  0.39227910  0.75443797  0.44534608    -0.23900
H539        H  0.40547716  0.89058472  0.36246014     0.05300
H540        H  0.37218238  0.87588102  0.33258809     0.08500
H541        H  0.41305980  0.86775886  0.31720357     0.08500
H542        H  0.37552202  0.75605384  0.47144700     0.08500
H543        H  0.41696307  0.74966156  0.45676514     0.08500
H544        H  0.38448247  0.73340887  0.42673264     0.05300
C545        C  0.38569203  0.78546969  0.09667776    -0.20500
C546        C  0.37954453  0.81642000  0.07993893    -0.07100
C547        C  0.39664806  0.84358952  0.09581496     0.13800
C548        C  0.41412284  0.83990916  0.13143947    -0.20600
C549        C  0.41938777  0.80916409  0.14814605    -0.07100
C550        C  0.40556632  0.78147672  0.13013089     0.13800
C551        C  0.41188222  0.74734499  0.14472062    -0.23900
H552        H  0.37603517  0.76374432  0.08274197     0.15100
H553        H  0.42647597  0.86077661  0.14419850     0.15100
C554        C  0.40047056  0.87573243  0.07435174    -0.23900
H555        H  0.42286956  0.73278390  0.11993539     0.05300
H556        H  0.38869913  0.73585485  0.15394769     0.08500
H557        H  0.42845195  0.74642661  0.17074704     0.08500
H558        H  0.39482630  0.87422613  0.04186828     0.08500
H559        H  0.42610180  0.88370769  0.07553122     0.08500
H560        H  0.38533641  0.89454457  0.08937266     0.05300
C561        C  0.23184011  0.74996793  0.02077696    -0.20500
C562        C  0.24057913  0.71869336  0.00758328    -0.07100
C563        C  0.27324783  0.71519229  0.49072230     0.13800
C564        C  0.29375427  0.74204210  0.48672707    -0.20600
C565        C  0.28518914  0.77238536  0.50234700    -0.07100
C566        C  0.25454439  0.77540469  0.02137588     0.13800
C567        C  0.24493261  0.80666288  0.04210926    -0.23900
H568        H  0.20739090  0.75455665  0.03124896     0.15100
H569        H  0.31800705  0.73847836  0.47490774     0.15100
C570        C  0.28800382  0.68235024  0.48262837    -0.23900
H571        H  0.22352512  0.81726475  0.02705397     0.05300
H572        H  0.26397097  0.82572745  0.54307710     0.08500
H573        H  0.23847868  0.80151888  0.07400942     0.08500
H574        H  0.29195103  0.67899958  0.44975380     0.08500
H575        H  0.27069946  0.66037402  0.00324769     0.08500
H576        H  0.31166160  0.68058000  0.49803990     0.05300
C577        C  0.15812031  0.62111698  0.09608593    -0.20500
C578        C  0.18642741  0.63780216  0.08528551    -0.07100
C579        C  0.21354866  0.63624731  0.11073975     0.13800
C580        C  0.21251054  0.61590143  0.14487611    -0.20600
C581        C  0.18488093  0.59730921  0.15389888    -0.07100
C582        C  0.15697505  0.60100891  0.13015291     0.13800
C583        C  0.12624382  0.58300212  0.14015809    -0.23900
H584        H  0.13730752  0.62257562  0.07653935     0.15100
H585        H  0.23378732  0.61318780  0.16338213     0.15100
C586        C  0.24395815  0.65473992  0.10078160    -0.23900
H587        H  0.10657194  0.58911626  0.11890990     0.05300
H588        H  0.11807924  0.58962795  0.17105799     0.08500
H589        H  0.13036075  0.55635563  0.13855132     0.08500
H590        H  0.23862651  0.68119030  0.09947914     0.08500
H591        H  0.25362756  0.64659187  0.07117498     0.08500
H592        H  0.26291541  0.65082750  0.12376624     0.05300
C593        C  0.15879971  0.61593583  0.41554555    -0.20500
C594        C  0.18770460  0.62497629  0.43489500    -0.07100
C595        C  0.21708949  0.61073444  0.42072125     0.13800
C596        C  0.21746609  0.59378194  0.38418273    -0.20600
C597        C  0.18875376  0.58561242  0.36491645    -0.07100
C598        C  0.15898632  0.59580911  0.38140774     0.13800
C599        C  0.12742228  0.58465885  0.36364723    -0.23900
H600        H  0.13568782  0.62322222  0.42785338     0.15100
H601        H  0.24011526  0.58426055  0.37244681     0.15100
C602        C  0.24814125  0.61054848  0.44408103    -0.23900
H603        H  0.10633981  0.59415189  0.38090963     0.05300
H604        H  0.12621503  0.55766235  0.36402837     0.08500
H605        H  0.12535233  0.59327809  0.33213048     0.08500
H606        H  0.24490560  0.61839955  0.47565660     0.08500
H607        H  0.26640584  0.62598851  0.42863616     0.08500
H608        H  0.25760112  0.58529705  0.44563807     0.05300
C609        C  0.30957266  0.91358809  0.51210587    -0.20500
C610        C  0.29911316  0.88356970  0.49585474    -0.07100
C611        C  0.26957484  0.88082920  0.97638412     0.13800
C612        C  0.24940390  0.90818574  0.97999997    -0.20600
C613        C  0.25702527  0.93775865  0.50201112    -0.07100
C614        C  0.28890173  0.94045006  0.51568203     0.13800
C615        C  0.30123730  0.97182433  0.53342765    -0.23900
H616        H  0.33404201  0.91594189  0.52307529     0.15100
H617        H  0.22533123  0.90756848  0.96734140     0.15100
C618        C  0.25709220  0.85267374  0.95190697    -0.23900
H619        H  0.32713074  0.97011037  0.54165015     0.05300
H620        H  0.28969826  0.97637166  0.05908293     0.08500
H621        H  0.29863159  0.99174648  0.51114049     0.08500
H622        H  0.23166348  0.85637459  0.94251809     0.08500
H623        H  0.25685093  0.83121405  0.47084751     0.08500
H624        H  0.27165041  0.85031719  0.92385184     0.05300
C625        C  0.29159444  0.07711081  0.50072762    -0.20500
C626        C  0.25984280  0.08288311  0.51347171    -0.07100
C627        C  0.25000056  0.11435800  0.02184640     0.13800
C628        C  0.27194056  0.14036788  0.02156521    -0.20600
C629        C  0.30398917  0.13593087  0.00871390    -0.07100
C630        C  0.31471951  0.10204185  0.50155646     0.13800
C631        C  0.34949883  0.09276614  0.49407387    -0.23900
H632        H  0.29859747  0.05285347  0.49116234     0.15100
H633        H  0.26351549  0.16448120  0.02946044     0.15100
C634        C  0.21538032  0.12032265  0.03422149    -0.23900
H635        H  0.35626861  0.07280868  0.51488161     0.05300
H636        H  0.36653124  0.11675146  0.00103255     0.08500
H637        H  0.35268014  0.08412465  0.46256784     0.08500
H638        H  0.20915137  0.10520396  0.06085057     0.08500
H639        H  0.19957359  0.11478988  0.52501736     0.08500
H640        H  0.21106956  0.14620580  0.04230955     0.05300
C641        C  0.86615093  0.27463135  0.50144027    -0.20500
C642        C  0.87034027  0.30469963  0.01129412    -0.07100
C643        C  0.90087958  0.31496752  0.02554640     0.13800
C644        C  0.92717132  0.29327596  0.02426031    -0.20600
C645        C  0.92376618  0.26404393  0.50649354    -0.07100
C646        C  0.89209567  0.25269951  0.49938583     0.13800
C647        C  0.88568488  0.21749744  0.48949645    -0.23900
H648        H  0.84211859  0.26637172  0.49385752     0.15100
H649        H  0.95053939  0.30095441  0.03534079     0.15100
C650        C  0.90606709  0.34896888  0.04130912    -0.23900
H651        H  0.85955225  0.21274185  0.48482604     0.05300
H652        H  0.89393668  0.20194929  0.51468445     0.08500
H653        H  0.89887553  0.21055888  0.46151640     0.08500
H654        H  0.89057788  0.35315467  0.06808056     0.08500
H655        H  0.90021310  0.36715145  0.01783058     0.08500
H656        H  0.93150668  0.35300973  0.05046173     0.05300
C657        C  0.07605933  0.28656987  0.47821455    -0.20500
C658        C  0.07484265  0.26026764  0.00467658    -0.07100
C659        C  0.10085210  0.25535045  0.03148194     0.13800
C660        C  0.12817369  0.27545490  0.02870810    -0.20600
C661        C  0.13050479  0.29881117  0.50036410    -0.07100
C662        C  0.10369726  0.30630933  0.47618234     0.13800
C663        C  0.10375475  0.33591324  0.44959486    -0.23900
H664        H  0.05534306  0.29235164  0.45978742     0.15100
H665        H  0.14770712  0.27250676  0.04997164     0.15100
C666        C  0.10052793  0.22849338  0.06236393    -0.23900
H667        H  0.08073072  0.33846984  0.43295788     0.05300
H668        H  0.12372900  0.33409374  0.42719443     0.08500
H669        H  0.10705598  0.35805107  0.46834410     0.08500
H670        H  0.09671251  0.20467143  0.04724215     0.08500
H671        H  0.08104799  0.23282334  0.08489336     0.08500
H672        H  0.12369004  0.22715651  0.07895009     0.05300
C673        C  0.09361572  0.12945145  0.47829559    -0.20500
C674        C  0.07013698  0.12560178  0.00468088    -0.07100
C675        C  0.07338502  0.10251795  0.03614722     0.13800
C676        C  0.09975080  0.08105088  0.03572760    -0.20600
C677        C  0.12096710  0.08331660  0.50892577    -0.07100
C678        C  0.12057457  0.10887485  0.48021120     0.13800
C679        C  0.14850693  0.11642084  0.45223540    -0.23900
H680        H  0.09357850  0.14910600  0.45653031     0.15100
H681        H  0.10206658  0.06340287  0.05976123     0.15100
C682        C  0.04858497  0.09913710  0.06944279    -0.23900
H683        H  0.14117366  0.11201568  0.42057161     0.05300
H684        H  0.17053350  0.10218642  0.45858458     0.08500
H685        H  0.13694605  0.12606113  0.91687235     0.08500
H686        H  0.01748040  0.09203504  0.54517610     0.08500
H687        H  0.04846778  0.12118946  0.08876543     0.08500
H688        H  0.05378417  0.07806608  0.08926927     0.05300
C689        C  0.69632774  0.90373139  0.03192117    -0.20500
C690        C  0.70224863  0.87702761  0.00654692    -0.07100
C691        C  0.72713061  0.87971403  0.47582555     0.13800
C692        C  0.74606510  0.90798844  0.47441002    -0.20600
C693        C  0.74096730  0.93378254  0.50136844    -0.07100
C694        C  0.71549829  0.93204718  0.02997781     0.13800
C695        C  0.70754930  0.96007265  0.05773924    -0.23900
H696        H  0.67601946  0.90295253  0.05250153     0.15100
H697        H  0.76551574  0.90957051  0.45238926     0.15100
C698        C  0.73537130  0.85329801  0.44589523    -0.23900
H699        H  0.68556168  0.95516394  0.07616370     0.05300
H700        H  0.70373645  0.98134055  0.54224153     0.08500
H701        H  0.72772494  0.96432726  0.07891264     0.08500
H702        H  0.72090714  0.83102275  0.45017763     0.08500
H703        H  0.76254757  0.84458740  0.95467020     0.08500
H704        H  0.73164385  0.86241714  0.41481156     0.05300
C705        C  0.70747671  0.07632769  0.99066173    -0.20500
C706        C  0.73995216  0.08154206  0.98088868    -0.07100
C707        C  0.75010700  0.11245565  0.46822526     0.13800
C708        C  0.72810794  0.13833664  0.46514855    -0.20600
C709        C  0.69537496  0.13429705  0.47522677    -0.07100
C710        C  0.68464916  0.10134615  0.98707194     0.13800
C711        C  0.64967399  0.09234021  0.99349874    -0.23900
H712        H  0.69975486  0.05237009  0.00046729     0.15100
H713        H  0.73691624  0.16213146  0.45656460     0.15100
C714        C  0.78517595  0.11814359  0.45789978    -0.23900
H715        H  0.64351899  0.07136264  0.97384013     0.05300
H716        H  0.63265741  0.11450146  0.47810228     0.08500
H717        H  0.64560722  0.08522285  0.02540598     0.08500
H718        H  0.79257655  0.10194494  0.43265769     0.08500
H719        H  0.80040933  0.11417864  0.97864845     0.08500
H720        H  0.78975130  0.14368248  0.44854067     0.05300
C721        C  0.89856348  0.08231452  0.46722694    -0.20500
C722        C  0.87597941  0.08121195  0.99294181    -0.07100
C723        C  0.87514914  0.10673230  0.02187314     0.13800
C724        C  0.90140643  0.12812840  0.02456285    -0.20600
C725        C  0.92543762  0.12854504  0.49818803    -0.07100
C726        C  0.92371463  0.10514832  0.46684874     0.13800
C727        C  0.94876906  0.10314558  0.43364157    -0.23900
H728        H  0.89760278  0.06404691  0.44364988     0.15100
H729        H  0.90068630  0.14757716  0.04671225     0.15100
C730        C  0.84671303  0.11325109  0.04952962    -0.23900
H731        H  0.94470916  0.08188336  0.41358171     0.05300
H732        H  0.97927152  0.09375183  0.95799839     0.08500
H733        H  0.94774384  0.12525663  0.41457197     0.08500
H734        H  0.82507418  0.09857454  0.04256069     0.08500
H735        H  0.85562789  0.12968531  0.58192602     0.08500
H736        H  0.85380321  0.10871473  0.08122145     0.05300
C737        C  0.90164270  0.76859051  0.48171879    -0.20500
C738        C  0.93203212  0.75503478  0.48827190    -0.07100
C739        C  0.93624625  0.72177238  0.98729322     0.13800
C740        C  0.90857107  0.70216598  0.98411405    -0.20600
C741        C  0.87675761  0.71485343  0.48364724    -0.07100
C742        C  0.87388349  0.74919461  0.47939681     0.13800
C743        C  0.84267759  0.76729362  0.47419524    -0.23900
H744        H  0.89940457  0.79486119  0.47971373     0.15100
H745        H  0.91131391  0.67593533  0.98364616     0.15100
C746        C  0.96927636  0.70647003  0.98778200    -0.23900
H747        H  0.84398009  0.78211441  0.44628494     0.05300
H748        H  0.83834912  0.78310793  0.00662483     0.08500
H749        H  0.82163453  0.75150278  0.47146063     0.08500
H750        H  0.98152262  0.71243707  0.01650822     0.08500
H751        H  0.98451964  0.71301783  0.46944222     0.08500
H752        H  0.96794586  0.67957047  0.98490136     0.05300
C753        C  0.10305124  0.76240688  0.98087961    -0.20500
C754        C  0.07863316  0.75975418  0.01028323    -0.07100
C755        C  0.08086091  0.73411387  0.53956108     0.13800
C756        C  0.10803567  0.71353676  0.53912251    -0.20600
C757        C  0.13195042  0.71673680  0.00978223    -0.07100
C758        C  0.12968798  0.74141617  0.98036249     0.13800
C759        C  0.15543475  0.74587768  0.94838419    -0.23900
H760        H  0.10129180  0.78108215  0.95798791     0.15100
H761        H  0.10949366  0.69349495  0.56022708     0.15100
C762        C  0.05439771  0.72775520  0.57000167    -0.23900
H763        H  0.15051359  0.76732546  0.92909066     0.05300
H764        H  0.15930793  0.72760468  0.43089406     0.08500
H765        H  0.17921858  0.74966356  0.96279163     0.08500
H766        H  0.03122468  0.72352379  0.55427780     0.08500
H767        H  0.05568401  0.75381385  0.09294578     0.08500
H768        H  0.05953453  0.70594776  0.58859434     0.05300
C769        C  0.88641681  0.92371550  0.46850456    -0.20500
C770        C  0.87914953  0.94019821  0.50475898    -0.07100
C771        C  0.89946822  0.93505527  0.03365929     0.13800
C772        C  0.92388571  0.91139339  0.03182413    -0.20600
C773        C  0.92890959  0.89200169  0.99733298    -0.07100
C774        C  0.91116660  0.90051548  0.46559166     0.13800
C775        C  0.91715961  0.88443647  0.42530714    -0.23900
H776        H  0.87258089  0.92900820  0.44173890     0.15100
H777        H  0.93966778  0.90848891  0.05746608     0.15100
C778        C  0.89712665  0.95632082  0.07065822    -0.23900
H779        H  0.89984706  0.89280294  0.40212491     0.05300
H780        H  0.91442752  0.85766028  0.42814178     0.08500
H781        H  0.93608636  0.88218759  0.91112676     0.08500
H782        H  0.90940784  0.94153953  0.60237742     0.08500
H783        H  0.87366013  0.95227884  0.08625250     0.08500
H784        H  0.89953390  0.98229400  0.06194449     0.05300
C785        C  0.09176318  0.94785031  0.48768076    -0.20500
C786        C  0.12197971  0.94125940  0.00494474    -0.07100
C787        C  0.12194029  0.91477067  0.03221573     0.13800
C788        C  0.09494895  0.89430657  0.03412383    -0.20600
C789        C  0.06872510  0.89715601  0.51189994    -0.07100
C790        C  0.06577392  0.92611320  0.48925574     0.13800
C791        C  0.03535549  0.93538395  0.46734371    -0.23900
H792        H  0.08939563  0.97027617  0.47077780     0.15100
H793        H  0.09529698  0.87349884  0.05417888     0.15100
C794        C  0.15042928  0.90601147  0.05812705    -0.23900
H795        H  0.04048323  0.93696076  0.43450839     0.05300
H796        H  0.03213375  0.95933037  0.96218895     0.08500
H797        H  0.01522516  0.91802585  0.47222392     0.08500
H798        H  0.17242683  0.92033562  0.05125539     0.08500
H799        H  0.16185926  0.87870101  0.54117386     0.08500
H800        H  0.14389005  0.90936401  0.09038921     0.05300
O801        O  0.03259940  0.85854418  0.54153338    -0.73100
O802        O  0.96661551  0.78704299  0.52931267    -0.74100
O803        O  0.03499814  0.78984373  0.53940142    -0.62700
O804        O  0.96443534  0.85590562  0.53397696    -0.71200
O805        O  0.96875992  0.85727440  0.96582767    -0.70700
O806        O  0.04192270  0.79294824  0.97303170    -0.62000
O807        O  0.97369241  0.78879481  0.96391187    -0.74500
O808        O  0.03642125  0.86149182  0.97247236    -0.73300
Cu809      Cu  0.99944647  0.82263712  0.53838385     1.04600
Cu810      Cu  0.00543440  0.82503379  0.96652546     1.04300
C811        C  0.04435328  0.87274593  0.00679231     0.93000
C812        C  0.95913090  0.77751850  0.49385304     0.92200
C813        C  0.05065973  0.78230903  0.00753050     0.84300
C814        C  0.95537380  0.86762786  0.50032582     0.90600
O815        O  0.84034374  0.97743693  0.53577075    -0.73100
O816        O  0.76972729  0.04556087  0.52345706    -0.74100
O817        O  0.77173454  0.97616279  0.53180266    -0.62700
O818        O  0.83774048  0.04639372  0.53029163    -0.71200
O819        O  0.84236942  0.04235289  0.95889159    -0.70700
O820        O  0.77461368  0.97102369  0.96354219    -0.62000
O821        O  0.77440150  0.04069602  0.95447790    -0.74500
O822        O  0.84287630  0.97341694  0.96460834    -0.73300
Cu823      Cu  0.80463518  0.01152750  0.53267238     1.04600
Cu824      Cu  0.80853008  0.00666376  0.95801512     1.04300
C825        C  0.85277989  0.96409206  0.99897404     0.93000
C826        C  0.76182509  0.05458523  0.48792082     0.92200
C827        C  0.76307209  0.96234272  0.99789554     0.84300
C828        C  0.85026992  0.05614015  0.49731139     0.90600
O829        O  0.03275708  0.22943385  0.53810498    -0.73100
O830        O  0.96122424  0.16321144  0.53463600    -0.74100
O831        O  0.02946609  0.16130870  0.53709646    -0.62700
O832        O  0.96324298  0.23156590  0.53807966    -0.71200
O833        O  0.96374919  0.23041618  0.97197339    -0.70700
O834        O  0.03429386  0.16215814  0.97050648    -0.62000
O835        O  0.96582860  0.16200102  0.96845761    -0.74500
O836        O  0.03341668  0.23075017  0.97154973    -0.73300
Cu837      Cu  0.99659925  0.19650785  0.53930747     1.04600
Cu838      Cu  0.99932435  0.19654328  0.96832002     1.04300
C839        C  0.04496512  0.23964931  0.50490621     0.93000
C840        C  0.95353330  0.15068463  0.00080326     0.92200
C841        C  0.04158214  0.15096465  0.50407724     0.84300
C842        C  0.95236470  0.24025171  0.00588325     0.90600
O843        O  0.15627146  0.04607686  0.54277254    -0.73100
O844        O  0.22479188  0.97576826  0.53937534    -0.74100
O845        O  0.22461984  0.04488424  0.54387075    -0.62700
O846        O  0.15666689  0.97690925  0.54143383    -0.71200
O847        O  0.15837657  0.97702306  0.97065762    -0.70700
O848        O  0.22845494  0.04512090  0.97284847    -0.62000
O849        O  0.22632637  0.97584006  0.96935924    -0.74500
O850        O  0.16020100  0.04569288  0.97165113    -0.73300
Cu851      Cu  0.19062537  0.01086484  0.54423012     1.04600
Cu852      Cu  0.19347788  0.01097674  0.96879065     1.04300
C853        C  0.14858820  0.05627995  0.00481633     0.93000
C854        C  0.23411273  0.96498382  0.50495109     0.92200
C855        C  0.23783110  0.05592627  0.00701777     0.84300
C856        C  0.14549940  0.96677530  0.50803626     0.90600
C857        C  0.18676960  0.64832346  0.97076461     0.86300
C858        C  0.15655386  0.67002440  0.97416842    -0.54000
C859        C  0.15740533  0.69170013  0.50600839     0.09200
C860        C  0.18765911  0.68837129  0.53252500     0.20200
C861        C  0.21431084  0.67331745  0.97036302    -0.54700
C862        C  0.21616224  0.69348882  0.50262439     0.09300
C863        C  0.18868919  0.63104822  0.01141225    -0.54200
C864        C  0.18885243  0.65196687  0.54369628     0.09900
H865        H  0.13764237  0.67117735  0.95180786     0.14400
H866        H  0.18772082  0.70485098  0.55906859     0.00100
H867        H  0.23125137  0.67566289  0.94539719     0.14700
H868        H  0.18898493  0.60524823  0.51424483     0.14500
C869        C  0.35669557  0.82034011  0.54367266     0.86300
C870        C  0.33783331  0.85214842  0.53817531    -0.54000
C871        C  0.32109803  0.85193557  0.00252649     0.09200
C872        C  0.32276577  0.81985569  0.97775777     0.20200
C873        C  0.32968755  0.79480386  0.54170781    -0.54700
C874        C  0.31232869  0.79366241  0.00864201     0.09300
C875        C  0.37645994  0.81588981  0.50489837    -0.54200
C876        C  0.35906994  0.81362834  0.96993987     0.09900
H877        H  0.33611010  0.87018657  0.56190407     0.14400
H878        H  0.30920793  0.81905099  0.94937920     0.00100
H879        H  0.32369394  0.77800890  0.56582640     0.14700
H880        H  0.40304127  0.80948831  0.00354874     0.14500
N881        N  0.50251624  0.79920561  0.69273645    -0.36800
N882        N  0.45050270  0.80721327  0.75381925    -0.57400
N883        N  0.49817779  0.80404375  0.81570200    -0.36800
N884        N  0.55047096  0.79937943  0.75496031    -0.57400
C885        C  0.47720206  0.80657572  0.66887315     0.26800
C886        C  0.52974769  0.80153500  0.66976341     0.26800
C887        C  0.47195307  0.81359714  0.83742985     0.26800
C888        C  0.52454052  0.81132692  0.83773866     0.26800
C889        C  0.43230164  0.80413516  0.72046670     0.35400
C890        C  0.43011079  0.80477704  0.78581043     0.35400
C891        C  0.57018797  0.79207066  0.72346591     0.35400
C892        C  0.56768642  0.79447611  0.78878813     0.35400
C893        C  0.48849480  0.81257930  0.63002319    -0.22100
C894        C  0.52147101  0.80964415  0.63069061    -0.18100
C895        C  0.48172654  0.82704487  0.87362661    -0.22100
C896        C  0.51488811  0.82592118  0.87368568    -0.22100
C897        C  0.40005153  0.80035279  0.73138625    -0.23200
C898        C  0.39873638  0.80042433  0.77280593    -0.23100
C899        C  0.60019582  0.78263066  0.73725304    -0.23200
C900        C  0.59853591  0.78379753  0.77866988    -0.23100
C901        C  0.44401990  0.80648182  0.68031475    -0.18500
C902        C  0.56189005  0.79567146  0.68247679    -0.18500
C903        C  0.55678792  0.80223457  0.82829168    -0.18500
C904        C  0.43934060  0.80905350  0.82638336    -0.18500
H905        H  0.47457068  0.81822924  0.60351414     0.14400
H906        H  0.53747315  0.81287487  0.60505049     0.14400
H907        H  0.46652001  0.83663014  0.89754141     0.14400
H908        H  0.53014137  0.83428285  0.89794139     0.14400
H909        H  0.37952820  0.79792631  0.71161674     0.12700
H910        H  0.37711499  0.79834562  0.79118380     0.12700
H911        H  0.62106861  0.77572619  0.71933766     0.12700
H912        H  0.61806164  0.77802537  0.79891693     0.12700
H913        H  0.50082128  0.79035136  0.72185182     0.26000
H914        H  0.49800632  0.78950265  0.78997322     0.26000
C915        C  0.64133670  0.81522698  0.96752066     0.86300
C916        C  0.65783635  0.84834339  0.97283802    -0.54000
C917        C  0.67773531  0.85006171  0.50329018     0.09200
C918        C  0.67780489  0.81894285  0.52993502     0.20200
C919        C  0.66845189  0.79015604  0.96875899    -0.54700
C920        C  0.68741089  0.79127661  0.50025112     0.09300
C921        C  0.62285501  0.81076017  0.00753910    -0.54200
C922        C  0.64177978  0.81204672  0.54031244     0.09900
H923        H  0.65517066  0.86846107  0.95203883     0.14400
H924        H  0.69267721  0.82093806  0.55721217     0.00100
H925        H  0.67228519  0.77313721  0.94409678     0.14700
H926        H  0.59676889  0.80638878  0.50976944     0.14500
C927        C  0.81980515  0.65152398  0.53222020     0.86300
C928        C  0.85037480  0.67193988  0.52497706    -0.54000
C929        C  0.84962871  0.69336015  0.99298665     0.09200
C930        C  0.81739594  0.69012663  0.96978575     0.20200
C931        C  0.79201169  0.67574182  0.53362367    -0.54700
C932        C  0.79100307  0.69577742  0.00242233     0.09300
C933        C  0.81609113  0.63326041  0.49190345    -0.54200
C934        C  0.81495164  0.65351211  0.95938797     0.09900
H935        H  0.87177584  0.66991902  0.54337809     0.14400
H936        H  0.81520998  0.70589991  0.94288108     0.00100
H937        H  0.77491870  0.67723047  0.55861192     0.14700
H938        H  0.81661706  0.60744536  0.98962994     0.14500
C939        C  0.35743873  0.19878958  0.95346486     0.86300
C940        C  0.34056100  0.16603684  0.96209404    -0.54000
C941        C  0.32425208  0.16335853  0.49886561     0.09200
C942        C  0.32398404  0.19657318  0.52088306     0.20200
C943        C  0.32961187  0.22314762  0.95422427    -0.54700
C944        C  0.31246173  0.22120620  0.48871979     0.09300
C945        C  0.37706788  0.20518663  0.99185452    -0.54200
C946        C  0.36005858  0.20431895  0.52723212     0.09900
H947        H  0.34060983  0.14520882  0.94229254     0.14400
H948        H  0.30964719  0.19718817  0.54927491     0.00100
H949        H  0.32473757  0.23974256  0.92954710     0.14700
H950        H  0.40377248  0.20761094  0.49190063     0.14500
C951        C  0.18689491  0.36512520  0.53947787     0.86300
C952        C  0.15850389  0.34130649  0.53887908    -0.54000
C953        C  0.15655274  0.32435741  0.00391522     0.09200
C954        C  0.18512131  0.32932901  0.97435574     0.20200
C955        C  0.21630563  0.34226173  0.53521430    -0.54700
C956        C  0.21542072  0.32466675  0.00076820     0.09300
C957        C  0.18589530  0.38349478  0.49940619    -0.54200
C958        C  0.18467238  0.36601865  0.96455163     0.09900
H959        H  0.14115319  0.33897068  0.56342639     0.14400
H960        H  0.18422440  0.31326310  0.94744937     0.00100
H961        H  0.23492692  0.33917463  0.55754941     0.14700
H962        H  0.18594061  0.41185727  0.99581475     0.14500
N963        N  0.18518339  0.50413346  0.81423114    -0.36800
N964        N  0.18287463  0.45810974  0.75005923    -0.57400
N965        N  0.18341158  0.51287544  0.69244044    -0.36800
N966        N  0.18823367  0.55875826  0.75703978    -0.57400
C967        C  0.19046665  0.47615042  0.83472290     0.26800
C968        C  0.19355600  0.52895367  0.83878701     0.26800
C969        C  0.18918920  0.48731931  0.66771716     0.26800
C970        C  0.19075540  0.54024892  0.67148008     0.26800
C971        C  0.17704543  0.43713818  0.78060478     0.35400
C972        C  0.17707340  0.44178913  0.71564826     0.35400
C973        C  0.18452061  0.57553473  0.79172645     0.35400
C974        C  0.18381587  0.58025401  0.72677122     0.35400
C975        C  0.20237834  0.48329099  0.87260907    -0.22100
C976        C  0.20414906  0.51654279  0.87530351    -0.22100
C977        C  0.19996565  0.49859207  0.63054172    -0.22100
C978        C  0.20080504  0.53194871  0.63287370    -0.22100
C979        C  0.16767678  0.40716891  0.76562486    -0.23200
C980        C  0.16779923  0.41006659  0.72430639    -0.23100
C981        C  0.17839450  0.60803901  0.78343731    -0.23200
C982        C  0.17786891  0.61098928  0.74219549    -0.23100
C983        C  0.18217510  0.44450282  0.82154334    -0.18500
C984        C  0.18873589  0.56239952  0.83065137    -0.18500
C985        C  0.18691076  0.57258973  0.68548953    -0.18500
C986        C  0.18296568  0.45421661  0.67664568    -0.18500
H987        H  0.20838357  0.46633345  0.89631161     0.14400
H988        H  0.21167703  0.52985789  0.90174908     0.14400
H989        H  0.20619656  0.48428693  0.60417657     0.14400
H990        H  0.20787625  0.54821345  0.60875497     0.14400
H991        H  0.16197598  0.38542981  0.78261462     0.12700
H992        H  0.16224259  0.39088776  0.70304371     0.12700
H993        H  0.17499159  0.62766555  0.80485379     0.12700
H994        H  0.17390483  0.63320309  0.72549898     0.12700
H995        H  0.17238173  0.50651959  0.78777799     0.26000
H996        H  0.17160814  0.51169282  0.72002306     0.26000
N997        N  0.49905727  0.20600473  0.67977102    -0.36800
N998        N  0.55056489  0.20613731  0.73993389    -0.57400
N999        N  0.50187883  0.21019000  0.80169750    -0.36800
N1000       N  0.45063471  0.20779673  0.74092604    -0.57400
C1001       C  0.52505943  0.19682441  0.65771688     0.26800
C1002       C  0.47247452  0.19845591  0.65807393     0.26800
C1003       C  0.52834816  0.20418497  0.82425643     0.26800
C1004       C  0.47575431  0.20284620  0.82460114     0.26800
C1005       C  0.56830959  0.21132403  0.70625695     0.35400
C1006       C  0.56982647  0.21336148  0.77143991     0.35400
C1007       C  0.43140807  0.21344802  0.70901975     0.35400
C1008       C  0.43283134  0.21414186  0.77412752     0.35400
C1009       C  0.51488412  0.18292990  0.62179667    -0.22100
C1010       C  0.48168419  0.18415342  0.62193635    -0.22100
C1011       C  0.51893416  0.19331804  0.86206912    -0.22100
C1012       C  0.48573897  0.19228087  0.86223262    -0.22100
C1013       C  0.59911414  0.22167644  0.71649962    -0.23200
C1014       C  0.60013367  0.22265906  0.75788734    -0.23100
C1015       C  0.40112823  0.22351721  0.72192341    -0.23200
C1016       C  0.40196261  0.22377095  0.76338799    -0.23100
C1017       C  0.55748511  0.20486233  0.66667948    -0.18500
C1018       C  0.44032629  0.20644159  0.66886486    -0.18500
C1019       C  0.44318304  0.20798030  0.81372313    -0.18500
C1020       C  0.56068013  0.21000494  0.81222580    -0.18500
H1021       H  0.52989110  0.17393639  0.59734349     0.14400
H1022       H  0.46612225  0.17603854  0.59785231     0.14400
H1023       H  0.53436186  0.18698447  0.88703476     0.14400
H1024       H  0.47066054  0.18514521  0.88752131     0.14400
H1025       H  0.61892292  0.22767014  0.69638078     0.12700
H1026       H  0.62074191  0.22947210  0.77592630     0.12700
H1027       H  0.38042991  0.22912069  0.70347499     0.12700
H1028       H  0.38200458  0.22970868  0.78335527     0.12700
H1029       H  0.49973756  0.22089876  0.70510285     0.26000
H1030       H  0.50148739  0.22216214  0.77424836     0.26000
C1031       C  0.64187417  0.19985012  0.52501391     0.86300
C1032       C  0.65559466  0.16592608  0.51619766    -0.54000
C1033       C  0.67532311  0.16293081  0.98433446     0.09200
C1034       C  0.67798560  0.19530354  0.96056958     0.20200
C1035       C  0.67091594  0.22252363  0.52659329    -0.54700
C1036       C  0.68956405  0.22050286  0.99209937     0.09300
C1037       C  0.62451396  0.20838583  0.48541338    -0.54200
C1038       C  0.64248947  0.20445525  0.95181032     0.09900
H1039       H  0.65096054  0.14528437  0.53563256     0.14400
H1040       H  0.69342507  0.19435865  0.93312608     0.00100
H1041       H  0.67521977  0.23908058  0.55158559     0.14700
H1042       H  0.59794886  0.21082423  0.98393327     0.14500
C1043       C  0.81590797  0.36929879  0.96370751     0.86300
C1044       C  0.84659378  0.34919187  0.97183597    -0.54000
C1045       C  0.84440262  0.33049951  0.50216014     0.09200
C1046       C  0.81191257  0.33249525  0.52534457     0.20200
C1047       C  0.78982057  0.34333528  0.95868849    -0.54700
C1048       C  0.78563532  0.32544337  0.49327411     0.09300
C1049       C  0.80908899  0.38603487  0.00430147    -0.54200
C1050       C  0.80824569  0.36908542  0.53520064     0.09900
H1051       H  0.86868807  0.34980292  0.95431707     0.14400
H1052       H  0.81066849  0.31658016  0.55229119     0.00100
H1053       H  0.77690625  0.34051537  0.93066107     0.14700
H1054       H  0.81047018  0.41504596  0.50452227     0.14500
N1055       N  0.81135986  0.51398895  0.80882774    -0.36800
N1056       N  0.81303265  0.46003177  0.75071615    -0.57400
N1057       N  0.81320019  0.50672895  0.68759607    -0.36800
N1058       N  0.81344648  0.56080483  0.74544103    -0.57400
C1059       C  0.81985978  0.48873670  0.83242226     0.26800
C1060       C  0.81769828  0.54155588  0.82975789     0.26800
C1061       C  0.82017598  0.47916913  0.66687372     0.26800
C1062       C  0.82257551  0.53203863  0.66440997     0.26800
C1063       C  0.80728513  0.44346010  0.78500417     0.35400
C1064       C  0.80626025  0.43962945  0.71991852     0.35400
C1065       C  0.80554412  0.58101888  0.77621204     0.35400
C1066       C  0.80736964  0.57704868  0.71105394     0.35400
C1067       C  0.83187073  0.50038079  0.86865211    -0.22100
C1068       C  0.83038584  0.53374477  0.86700790    -0.22100
C1069       C  0.83437065  0.48699680  0.63021379    -0.22100
C1070       C  0.83628503  0.52038087  0.62885985    -0.22100
C1071       C  0.79704628  0.41212314  0.77606373    -0.23200
C1072       C  0.79629084  0.40973478  0.73461981    -0.23100
C1073       C  0.79466099  0.61044689  0.76146762    -0.23200
C1074       C  0.79561200  0.60788892  0.72007452    -0.23100
C1075       C  0.81390138  0.45559541  0.82389585    -0.18500
C1076       C  0.80983151  0.57338619  0.81724207    -0.18500
C1077       C  0.81461036  0.56500603  0.67195885    -0.18500
C1078       C  0.81164680  0.44737866  0.67903780    -0.18500
H1079       H  0.84008374  0.48627537  0.89409549     0.14400
H1080       H  0.83735314  0.55034601  0.89077870     0.14400
H1081       H  0.84201785  0.47041695  0.60661173     0.14400
H1082       H  0.84537462  0.53450429  0.60371774     0.14400
H1083       H  0.79121030  0.39291965  0.79717841     0.12700
H1084       H  0.78985984  0.38835633  0.71733739     0.12700
H1085       H  0.78696052  0.63148795  0.77869912     0.12700
H1086       H  0.78868488  0.62670565  0.69909974     0.12700
H1087       H  0.79799668  0.51234499  0.78251494     0.26000
H1088       H  0.79849029  0.50835941  0.71313583     0.26000
C1089       C  0.83270862  0.38193645  0.60159554    -0.20500
C1090       C  0.80565917  0.38329426  0.57645144    -0.07100
C1091       C  0.77886711  0.40250804  0.58847214     0.13800
C1092       C  0.78069954  0.42138228  0.62373484    -0.20600
C1093       C  0.80874120  0.42189574  0.64714706    -0.07100
C1094       C  0.83487389  0.40151503  0.63635843     0.13800
C1095       C  0.86561589  0.40178237  0.66029217    -0.23900
H1096       H  0.85290270  0.36685429  0.59285427     0.15100
H1097       H  0.76058621  0.43695952  0.63209127     0.15100
C1098       C  0.74813191  0.40395154  0.56459275    -0.23900
H1099       H  0.88400425  0.38506596  0.64720386     0.05300
H1100       H  0.86047615  0.39401816  0.69170875     0.08500
H1101       H  0.87600224  0.42670260  0.66063338     0.08500
H1102       H  0.74867931  0.38782649  0.53786850     0.08500
H1103       H  0.74388137  0.42927681  0.55434311     0.08500
H1104       H  0.72753062  0.39616744  0.58393325     0.05300
C1105       C  0.84268089  0.39484151  0.90126425    -0.20500
C1106       C  0.81578568  0.39284687  0.92775652    -0.07100
C1107       C  0.78801399  0.41217795  0.91863528     0.13800
C1108       C  0.78813426  0.43175856  0.88420437    -0.20600
C1109       C  0.81467384  0.43271545  0.85815297    -0.07100
C1110       C  0.84241070  0.41453645  0.86688423     0.13800
C1111       C  0.87203867  0.41656492  0.84027221    -0.23900
H1112       H  0.86433592  0.38118253  0.90637411     0.15100
H1113       H  0.76720369  0.44663850  0.87754787     0.15100
C1114       C  0.75734154  0.41341055  0.94358938    -0.23900
H1115       H  0.89197313  0.40105798  0.85151986     0.05300
H1116       H  0.88083926  0.44208308  0.83921108     0.08500
H1117       H  0.86608677  0.40840659  0.80929857     0.08500
H1118       H  0.75669751  0.39661866  0.96922781     0.08500
H1119       H  0.73641128  0.40711443  0.92434975     0.08500
H1120       H  0.75386177  0.43845012  0.95552491     0.05300
C1121       C  0.76846127  0.26850568  0.51181756    -0.20500
C1122       C  0.76050714  0.29898042  0.49549491    -0.07100
C1123       C  0.72913551  0.30125225  0.97450843     0.13800
C1124       C  0.70792014  0.27472809  0.97185405    -0.20600
C1125       C  0.71619537  0.24415564  0.98681057    -0.07100
C1126       C  0.74660645  0.24212962  0.51045744     0.13800
C1127       C  0.75475693  0.21111210  0.53216400    -0.23900
H1128       H  0.79161407  0.26529156  0.52612897     0.15100
H1129       H  0.68371938  0.27834911  0.96036838     0.15100
C1130       C  0.71580463  0.33442434  0.96445804    -0.23900
H1131       H  0.77834862  0.21287172  0.54773261     0.05300
H1132       H  0.75569215  0.18844389  0.00386241     0.08500
H1133       H  0.73592068  0.20568036  0.55519193     0.08500
H1134       H  0.72508853  0.34315284  0.93507796     0.08500
H1135       H  0.72842747  0.35540160  0.48540453     0.08500
H1136       H  0.68905924  0.33394761  0.96195985     0.05300
C1137       C  0.61011713  0.23634883  0.90303590    -0.20500
C1138       C  0.62755943  0.20780991  0.91124821    -0.07100
C1139       C  0.62547258  0.18132603  0.88402885     0.13800
C1140       C  0.60476660  0.18345185  0.85070462    -0.20600
C1141       C  0.58599375  0.21127416  0.84397175    -0.07100
C1142       C  0.58952955  0.23848997  0.86969417     0.13800
C1143       C  0.57145146  0.26984675  0.86325925    -0.23900
H1144       H  0.61161651  0.25673286  0.92376102     0.15100
H1145       H  0.60198002  0.16269778  0.83080905     0.15100
C1146       C  0.64324287  0.14997727  0.89123968    -0.23900
H1147       H  0.58899322  0.29013088  0.85985316     0.05300
H1148       H  0.55561390  0.27483422  0.88971981     0.08500
H1149       H  0.55622609  0.26940140  0.83593409     0.08500
H1150       H  0.63568799  0.13958099  0.92062152     0.08500
H1151       H  0.66966349  0.15440841  0.89099160     0.08500
H1152       H  0.63806347  0.13158730  0.86757741     0.05300
C1153       C  0.59565992  0.22449946  0.56518392    -0.20500
C1154       C  0.62175484  0.20250924  0.56378666    -0.07100
C1155       C  0.62999676  0.18616255  0.60016365     0.13800
C1156       C  0.60801254  0.18627937  0.63246667    -0.20600
C1157       C  0.58084063  0.20653025  0.63242070    -0.07100
C1158       C  0.57583801  0.22745512  0.59931325     0.13800
C1159       C  0.55010036  0.25345355  0.59905649    -0.23900
H1160       H  0.59114879  0.24062860  0.54014762     0.15100
H1161       H  0.61282946  0.17140149  0.65869242     0.15100
C1162       C  0.66212457  0.16996009  0.60766796    -0.23900
H1163       H  0.56139616  0.27737842  0.59238749     0.05300
H1164       H  0.53727391  0.25599278  0.62832260     0.08500
H1165       H  0.53214518  0.24785896  0.57534279     0.08500
H1166       H  0.68071112  0.17565921  0.58463194     0.08500
H1167       H  0.65881306  0.14320295  0.60980128     0.08500
H1168       H  0.67208432  0.17891213  0.63663698     0.05300
C1169       C  0.20556302  0.39767280  0.85962973    -0.20500
C1170       C  0.17931460  0.41856595  0.85285958    -0.07100
C1171       C  0.15310001  0.41861945  0.88035258     0.13800
C1172       C  0.15489302  0.39991611  0.91556334    -0.20600
C1173       C  0.18185432  0.38033695  0.92357296    -0.07100
C1174       C  0.20712721  0.37850441  0.89476564     0.13800
C1175       C  0.23675023  0.35829391  0.90242548    -0.23900
H1176       H  0.22574297  0.39791335  0.83861892     0.15100
H1177       H  0.13573542  0.40172226  0.93787702     0.15100
C1178       C  0.12364391  0.43926434  0.87310279    -0.23900
H1179       H  0.25461574  0.36032641  0.87740490     0.05300
H1180       H  0.22994019  0.33229937  0.90545745     0.08500
H1181       H  0.24854371  0.36661312  0.93054034     0.08500
H1182       H  0.11263136  0.43229319  0.84392420     0.08500
H1183       H  0.13034320  0.46539735  0.87223314     0.08500
H1184       H  0.10514499  0.43600632  0.89719792     0.05300
C1185       C  0.21287832  0.39272942  0.60020845    -0.20500
C1186       C  0.18552472  0.38852806  0.57552264    -0.07100
C1187       C  0.15758397  0.40804081  0.58387047     0.13800
C1188       C  0.15718672  0.42816590  0.61802466    -0.20600
C1189       C  0.18411112  0.43090723  0.64275528    -0.07100
C1190       C  0.21252778  0.41382442  0.63330830     0.13800
C1191       C  0.24287112  0.41882795  0.65741588    -0.23900
H1192       H  0.23541957  0.38090752  0.59329480     0.15100
H1193       H  0.13599286  0.44266124  0.62508072     0.15100
C1194       C  0.12828444  0.40939645  0.55679187    -0.23900
H1195       H  0.26324581  0.40387191  0.64574519     0.05300
H1196       H  0.23846858  0.41201179  0.68933299     0.08500
H1197       H  0.25025935  0.44478596  0.65596542     0.08500
H1198       H  0.11550853  0.38582336  0.55553671     0.08500
H1199       H  0.13518006  0.41720100  0.52600780     0.08500
H1200       H  0.11022552  0.42735820  0.56787656     0.05300
C1201       C  0.23094650  0.26732170  0.98549805    -0.20500
C1202       C  0.24062957  0.29920650  0.99470700    -0.07100
C1203       C  0.27442132  0.30404356  0.49902773     0.13800
C1204       C  0.29658119  0.27827203  0.49952397    -0.20600
C1205       C  0.28669544  0.24596031  0.49411364    -0.07100
C1206       C  0.25338757  0.24165284  0.98382444     0.13800
C1207       C  0.24172334  0.20906460  0.96910766    -0.23900
H1208       H  0.20572095  0.26233632  0.97944914     0.15100
H1209       H  0.32213946  0.28359250  0.50240585     0.15100
C1210       C  0.28795718  0.33811305  0.50061903    -0.23900
H1211       H  0.23066465  0.21191605  0.93894624     0.05300
H1212       H  0.22449664  0.19719980  0.50016328     0.08500
H1213       H  0.26146536  0.19108951  0.96591069     0.08500
H1214       H  0.30011472  0.34209244  0.52992010     0.08500
H1215       H  0.26994757  0.35873382  0.00015586     0.08500
H1216       H  0.30596164  0.34125470  0.47592632     0.05300
C1217       C  0.37258767  0.18369912  0.59604425    -0.20500
C1218       C  0.37582146  0.20851027  0.56720705    -0.07100
C1219       C  0.39764112  0.23436030  0.57473040     0.13800
C1220       C  0.41749135  0.23328362  0.60873086    -0.20600
C1221       C  0.41562794  0.20759358  0.63632868    -0.07100
C1222       C  0.39226019  0.18285132  0.63050603     0.13800
C1223       C  0.38844204  0.15452408  0.65890729    -0.23900
H1224       H  0.35592460  0.16383543  0.59053834     0.15100
H1225       H  0.43500950  0.25252539  0.61349970     0.15100
C1226       C  0.40053932  0.26360060  0.54767407    -0.23900
H1227       H  0.39279250  0.13143903  0.64229399     0.05300
H1228       H  0.36346472  0.15429360  0.67136480     0.08500
H1229       H  0.40541683  0.15538633  0.68451641     0.08500
H1230       H  0.38162032  0.26420510  0.52436166     0.08500
H1231       H  0.42470031  0.26381574  0.53288190     0.08500
H1232       H  0.39768332  0.28613124  0.56588454     0.05300
C1233       C  0.41531378  0.23257191  0.87190397    -0.20500
C1234       C  0.41862322  0.20599840  0.84606748    -0.07100
C1235       C  0.40107953  0.17731058  0.85354750     0.13800
C1236       C  0.38090100  0.17574315  0.88747633    -0.20600
C1237       C  0.37803303  0.20197159  0.91499529    -0.07100
C1238       C  0.39535635  0.23124026  0.90604719     0.13800
C1239       C  0.39461170  0.26179665  0.93148857    -0.23900
H1240       H  0.42915268  0.25447009  0.86576695     0.15100
H1241       H  0.36813103  0.15324707  0.89169140     0.15100
C1242       C  0.40386940  0.14746710  0.82712656    -0.23900
H1243       H  0.38735373  0.28273372  0.91251287     0.05300
H1244       H  0.41914276  0.26656257  0.94347784     0.08500
H1245       H  0.37772855  0.26118418  0.95721244     0.08500
H1246       H  0.42065575  0.15070457  0.80127162     0.08500
H1247       H  0.37974060  0.14118285  0.81496503     0.08500
H1248       H  0.41277442  0.12671994  0.84530873     0.05300
C1249       C  0.83252904  0.62147877  0.85352794    -0.20500
C1250       C  0.80703278  0.59923138  0.84888847    -0.07100
C1251       C  0.78198433  0.59856897  0.87817740     0.13800
C1252       C  0.78413486  0.61853749  0.91239806    -0.20600
C1253       C  0.81064508  0.63925520  0.91842516    -0.07100
C1254       C  0.83476119  0.64136475  0.88809873     0.13800
C1255       C  0.86402088  0.66266810  0.89339477    -0.23900
H1256       H  0.85182678  0.62173840  0.83125596     0.15100
H1257       H  0.76563712  0.61675835  0.93563187     0.15100
C1258       C  0.75324925  0.57617924  0.87505850    -0.23900
H1259       H  0.88102414  0.66054906  0.86745484     0.05300
H1260       H  0.87710962  0.65543763  0.92102064     0.08500
H1261       H  0.85655813  0.68850905  0.89589255     0.08500
H1262       H  0.75305565  0.55909421  0.90094456     0.08500
H1263       H  0.75320569  0.56172305  0.84682140     0.08500
H1264       H  0.73069580  0.59078621  0.87587203     0.05300
C1265       C  0.83398714  0.61552514  0.63837325    -0.20500
C1266       C  0.81434264  0.58778791  0.63711453    -0.07100
C1267       C  0.79496174  0.58227640  0.60286139     0.13800
C1268       C  0.79825150  0.60278577  0.56954319    -0.20600
C1269       C  0.81906176  0.62996203  0.56976550    -0.07100
C1270       C  0.83433203  0.63810418  0.60680956     0.13800
C1271       C  0.84818106  0.67116776  0.61646555    -0.23900
H1272       H  0.84775700  0.62059726  0.66534308     0.15100
H1273       H  0.78314432  0.59805548  0.54369052     0.15100
C1274       C  0.77002460  0.55552906  0.60046455    -0.23900
H1275       H  0.84070768  0.67859009  0.64738956     0.05300
H1276       H  0.83885970  0.69053347  0.59657865     0.08500
H1277       H  0.87497454  0.67024244  0.61529335     0.08500
H1278       H  0.76672120  0.54219926  0.62915703     0.08500
H1279       H  0.77707458  0.53792797  0.57651595     0.08500
H1280       H  0.74621536  0.56618064  0.59279751     0.05300
C1281       C  0.70924313  0.73529473  0.99043704    -0.20500
C1282       C  0.71425012  0.76689365  0.50453210    -0.07100
C1283       C  0.74525459  0.77404775  0.52049104     0.13800
C1284       C  0.76957286  0.75023361  0.51852627    -0.20600
C1285       C  0.76502945  0.72038470  0.00122568    -0.07100
C1286       C  0.73426711  0.71254304  0.98659010     0.13800
C1287       C  0.72773828  0.67996085  0.96737474    -0.23900
H1288       H  0.68553571  0.72854150  0.97966653     0.15100
H1289       H  0.79261739  0.75477010  0.53273833     0.15100
C1290       C  0.75380722  0.80615434  0.53951491    -0.23900
H1291       H  0.70225025  0.67766220  0.95754865     0.05300
H1292       H  0.73194092  0.66030204  0.48734643     0.08500
H1293       H  0.74357857  0.67685282  0.94049820     0.08500
H1294       H  0.74230245  0.80819783  0.56964848     0.08500
H1295       H  0.74627552  0.82591336  0.02628643     0.08500
H1296       H  0.78026395  0.80853006  0.54411809     0.05300
C1297       C  0.60476395  0.82605149  0.64485335    -0.20500
C1298       C  0.58817560  0.79666185  0.65100848    -0.07100
C1299       C  0.59318372  0.77082591  0.62347390     0.13800
C1300       C  0.61287604  0.77575859  0.58911990    -0.20600
C1301       C  0.62776649  0.80596532  0.58147008    -0.07100
C1302       C  0.62426361  0.83105600  0.61038525     0.13800
C1303       C  0.63918594  0.86388326  0.60363758    -0.23900
H1304       H  0.60077184  0.84589523  0.66588189     0.15100
H1305       H  0.61545476  0.75641033  0.56706727     0.15100
C1306       C  0.57689009  0.73844493  0.62974724    -0.23900
H1307       H  0.66583327  0.86136661  0.60186812     0.05300
H1308       H  0.63337327  0.88108049  0.62852520     0.08500
H1309       H  0.62984710  0.87434401  0.57520928     0.08500
H1310       H  0.58361285  0.72073291  0.60577753     0.08500
H1311       H  0.55025359  0.74145820  0.62945281     0.08500
H1312       H  0.58419187  0.72818597  0.65922830     0.05300
C1313       C  0.60703814  0.82331518  0.85986843    -0.20500
C1314       C  0.58042726  0.80233582  0.86190880    -0.07100
C1315       C  0.57617939  0.78265735  0.89641387     0.13800
C1316       C  0.59589181  0.78780781  0.92990066    -0.20600
C1317       C  0.62122764  0.81077331  0.92929521    -0.07100
C1318       C  0.62915041  0.82528695  0.89149998     0.13800
C1319       C  0.66155887  0.84002438  0.88134959    -0.23900
H1320       H  0.61153607  0.83698874  0.83247194     0.15100
H1321       H  0.59187729  0.77281026  0.95625031     0.15100
C1322       C  0.55145664  0.75573185  0.89873821    -0.23900
H1323       H  0.67052949  0.82978509  0.85232808     0.05300
H1324       H  0.68026768  0.83392902  0.90357064     0.08500
H1325       H  0.65931197  0.86680189  0.87812486     0.08500
H1326       H  0.53822328  0.75216861  0.87017220     0.08500
H1327       H  0.53370564  0.76111586  0.92310909     0.08500
H1328       H  0.56378985  0.73242913  0.90561946     0.05300
C1329       C  0.37413081  0.83570304  0.90246671    -0.20500
C1330       C  0.37447260  0.80944451  0.92945001    -0.07100
C1331       C  0.39347856  0.78178575  0.91983407     0.13800
C1332       C  0.41309677  0.78202091  0.88508156    -0.20600
C1333       C  0.41431476  0.80904934  0.85933581    -0.07100
C1334       C  0.39410934  0.83607995  0.86783817     0.13800
C1335       C  0.39428041  0.86635778  0.84237140    -0.23900
H1336       H  0.35974474  0.85698654  0.90979194     0.15100
H1337       H  0.42836369  0.76119103  0.87858047     0.15100
C1338       C  0.39389080  0.75166859  0.94569601    -0.23900
H1339       H  0.40125101  0.88756591  0.86119640     0.05300
H1340       H  0.36971679  0.87054370  0.83024767     0.08500
H1341       H  0.41142763  0.86497033  0.81662702     0.08500
H1342       H  0.37662036  0.75284779  0.97132680     0.08500
H1343       H  0.41854516  0.74794630  0.95778356     0.08500
H1344       H  0.38720278  0.73020333  0.92715820     0.05300
C1345       C  0.38275059  0.78732833  0.59916959    -0.20500
C1346       C  0.37817025  0.81810803  0.58106294    -0.07100
C1347       C  0.39766609  0.84442523  0.59481606     0.13800
C1348       C  0.41678378  0.84028058  0.62913029    -0.20600
C1349       C  0.42002978  0.80987708  0.64758092    -0.07100
C1350       C  0.40336908  0.78288158  0.63186543     0.13800
C1351       C  0.40747648  0.74884319  0.64799222    -0.23900
H1352       H  0.37158902  0.76579010  0.58674541     0.15100
H1353       H  0.43095545  0.86053265  0.64033627     0.15100
C1354       C  0.40109639  0.87621355  0.57243595    -0.23900
H1355       H  0.41663423  0.73269468  0.62358123     0.05300
H1356       H  0.38375275  0.73949864  0.65872343     0.08500
H1357       H  0.42465802  0.74742546  0.67334789     0.08500
H1358       H  0.40113301  0.87230850  0.53935958     0.08500
H1359       H  0.42443679  0.88822187  0.57952128     0.08500
H1360       H  0.38166260  0.89329932  0.58153838     0.05300
C1361       C  0.23267266  0.75010972  0.52150107    -0.20500
C1362       C  0.24128740  0.71953438  0.50576339    -0.07100
C1363       C  0.27309996  0.71287542  0.99595464     0.13800
C1364       C  0.29438381  0.73900229  0.99175416    -0.20600
C1365       C  0.28565024  0.77022309  0.00426304    -0.07100
C1366       C  0.25472508  0.77613739  0.52168940     0.13800
C1367       C  0.24500157  0.80671351  0.54386593    -0.23900
H1368       H  0.20873094  0.75382318  0.53410390     0.15100
H1369       H  0.31908720  0.73438232  0.98219275     0.15100
C1370       C  0.28720574  0.67931154  0.99167121    -0.23900
H1371       H  0.22275392  0.81689740  0.53030451     0.05300
H1372       H  0.26451273  0.82504438  0.04201883     0.08500
H1373       H  0.23991916  0.80085280  0.57594192     0.08500
H1374       H  0.29355331  0.67447422  0.95966762     0.08500
H1375       H  0.27313665  0.66242597  0.49507950     0.08500
H1376       H  0.30942500  0.67748512  0.01008223     0.05300
C1377       C  0.15841264  0.62618336  0.59980843    -0.20500
C1378       C  0.18778501  0.63873944  0.58528178    -0.07100
C1379       C  0.21623282  0.63371357  0.60756705     0.13800
C1380       C  0.21517326  0.61377421  0.64206858    -0.20600
C1381       C  0.18613437  0.59916711  0.65480492    -0.07100
C1382       C  0.15721523  0.60682428  0.63465592     0.13800
C1383       C  0.12524922  0.59381763  0.64945392    -0.23900
H1384       H  0.13656440  0.63038488  0.58279493     0.15100
H1385       H  0.23726573  0.60821053  0.65793008     0.15100
C1386       C  0.24780212  0.64833720  0.59388498    -0.23900
H1387       H  0.10496158  0.60221287  0.63041357     0.05300
H1388       H  0.12072980  0.60243778  0.68074092     0.08500
H1389       H  0.12549975  0.56681303  0.64908383     0.08500
H1390       H  0.24551295  0.67524354  0.59266080     0.08500
H1391       H  0.25427603  0.63904344  0.56344200     0.08500
H1392       H  0.26774380  0.64226407  0.61474747     0.05300
C1393       C  0.15854169  0.61504431  0.91668002    -0.20500
C1394       C  0.18767037  0.62449741  0.93518473    -0.07100
C1395       C  0.21696245  0.61042769  0.92042719     0.13800
C1396       C  0.21682605  0.59300010  0.88420615    -0.20600
C1397       C  0.18785193  0.58487837  0.86547363    -0.07100
C1398       C  0.15830736  0.59511298  0.88245250     0.13800
C1399       C  0.12650138  0.58436515  0.86499675    -0.23900
H1400       H  0.13554860  0.62197527  0.92963396     0.15100
H1401       H  0.23931180  0.58338380  0.87210054     0.15100
C1402       C  0.24843887  0.61092613  0.94285798    -0.23900
H1403       H  0.10563582  0.59409231  0.88247642     0.05300
H1404       H  0.12497707  0.55738993  0.86530275     0.08500
H1405       H  0.12433370  0.59309672  0.83353687     0.08500
H1406       H  0.24546252  0.61860000  0.97450732     0.08500
H1407       H  0.26606332  0.62683734  0.92698139     0.08500
H1408       H  0.25853057  0.58591198  0.94412547     0.05300
C1409       C  0.31154134  0.91149318  0.01061669    -0.20500
C1410       C  0.30065346  0.88154538  0.99453789    -0.07100
C1411       C  0.26785219  0.88238026  0.47815251     0.13800
C1412       C  0.24719288  0.90935066  0.48229088    -0.20600
C1413       C  0.25954437  0.93650338  0.99966080    -0.07100
C1414       C  0.29130628  0.93870184  0.01384649     0.13800
C1415       C  0.30398912  0.96986163  0.03179707    -0.23900
H1416       H  0.33599147  0.91355045  0.02173015     0.15100
H1417       H  0.22301037  0.90836291  0.46998653     0.15100
C1418       C  0.25563250  0.85407391  0.45372445    -0.23900
H1419       H  0.32970618  0.96763544  0.04066753     0.05300
H1420       H  0.28723382  0.97800386  0.56105917     0.08500
H1421       H  0.30213136  0.98979680  0.00940019     0.08500
H1422       H  0.23000255  0.85727972  0.44490137     0.08500
H1423       H  0.25758261  0.82986367  0.96919722     0.08500
H1424       H  0.26983728  0.85214960  0.42534529     0.05300
C1425       C  0.29302375  0.07811731  0.99972063    -0.20500
C1426       C  0.26047249  0.08329655  0.00906634    -0.07100
C1427       C  0.25147561  0.11354321  0.52972069     0.13800
C1428       C  0.27395259  0.13905909  0.52780831    -0.20600
C1429       C  0.30486283  0.13428708  0.51113225    -0.07100
C1430       C  0.31522282  0.10384548  0.00093172     0.13800
C1431       C  0.35046950  0.09571026  0.99510039    -0.23900
H1432       H  0.30126650  0.05379330  0.99216751     0.15100
H1433       H  0.26663109  0.16306393  0.53763656     0.15100
C1434       C  0.21848584  0.11969115  0.54775006    -0.23900
H1435       H  0.35739395  0.07632292  0.01662644     0.05300
H1436       H  0.36642918  0.11311803  0.49993348     0.08500
H1437       H  0.35472388  0.08673351  0.96391925     0.08500
H1438       H  0.21460784  0.10356192  0.57414527     0.08500
H1439       H  0.19909457  0.11388922  0.00905454     0.08500
H1440       H  0.21576619  0.14523634  0.55822705     0.05300
C1441       C  0.86697230  0.27306376  0.99599997    -0.20500
C1442       C  0.87117369  0.30758093  0.51030909    -0.07100
C1443       C  0.90293517  0.31872525  0.51837544     0.13800
C1444       C  0.92876043  0.29661228  0.51695222    -0.20600
C1445       C  0.92403680  0.26217208  0.00732037    -0.07100
C1446       C  0.89348522  0.25176770  0.99356486     0.13800
C1447       C  0.88880803  0.21814450  0.97635827    -0.23900
H1448       H  0.84391805  0.26559738  0.98382333     0.15100
H1449       H  0.95310195  0.30488250  0.52314863     0.15100
C1450       C  0.90997978  0.35387517  0.52805194    -0.23900
H1451       H  0.86331292  0.21374479  0.96768220     0.05300
H1452       H  0.89553839  0.19966814  0.99912759     0.08500
H1453       H  0.90416218  0.21497318  0.94905739     0.08500
H1454       H  0.89716117  0.36101452  0.55600336     0.08500
H1455       H  0.90241339  0.36993044  0.50307327     0.08500
H1456       H  0.93616963  0.35808149  0.53295296     0.05300
C1457       C  0.07778546  0.28410540  0.97452081    -0.20500
C1458       C  0.07435788  0.26005000  0.50473466    -0.07100
C1459       C  0.10171333  0.25191041  0.52798607     0.13800
C1460       C  0.12943603  0.27152007  0.52556769    -0.20600
C1461       C  0.13039529  0.30010342  0.99971994    -0.07100
C1462       C  0.10514292  0.30425997  0.97196803     0.13800
C1463       C  0.10629054  0.33091598  0.94101757    -0.23900
H1464       H  0.05821584  0.28751224  0.95343862     0.15100
H1465       H  0.15012078  0.26610586  0.54423680     0.15100
C1466       C  0.10216039  0.22220909  0.55458514    -0.23900
H1467       H  0.08448515  0.33088824  0.92173771     0.05300
H1468       H  0.12778039  0.32775095  0.92118570     0.08500
H1469       H  0.10755532  0.35477637  0.95657396     0.08500
H1470       H  0.09685321  0.20014513  0.53639971     0.08500
H1471       H  0.08392240  0.22470465  0.57907782     0.08500
H1472       H  0.12607738  0.21873482  0.56888303     0.05300
C1473       C  0.09301315  0.12572412  0.97322869    -0.20500
C1474       C  0.06760601  0.12628031  0.50529154    -0.07100
C1475       C  0.06810187  0.10100961  0.53428332     0.13800
C1476       C  0.09478728  0.07996241  0.53570628    -0.20600
C1477       C  0.12252542  0.08108755  0.00420577    -0.07100
C1478       C  0.11895342  0.10372449  0.97229033     0.13800
C1479       C  0.14241043  0.10543771  0.93728239    -0.23900
H1480       H  0.09069472  0.14335032  0.94917880     0.15100
H1481       H  0.09481675  0.06015948  0.55723634     0.15100
C1482       C  0.04006029  0.09505725  0.56265452    -0.23900
H1483       H  0.14096897  0.08285549  0.91899632     0.05300
H1484       H  0.16738188  0.10884469  0.94842359     0.08500
H1485       H  0.15533383  0.14242896  0.45557481     0.08500
H1486       H  0.02429371  0.09527229  0.05627884     0.08500
H1487       H  0.03739702  0.11564637  0.58407836     0.08500
H1488       H  0.04355669  0.07269069  0.58083336     0.05300
C1489       C  0.69646222  0.90300131  0.53147804    -0.20500
C1490       C  0.70180666  0.87704382  0.50482875    -0.07100
C1491       C  0.72807995  0.87895585  0.97820479     0.13800
C1492       C  0.74674507  0.90733449  0.97579354    -0.20600
C1493       C  0.74089869  0.93400870  0.00109920    -0.07100
C1494       C  0.71578303  0.93119407  0.53044011     0.13800
C1495       C  0.70805002  0.95855061  0.55929299    -0.23900
H1496       H  0.67639123  0.90181821  0.55234886     0.15100
H1497       H  0.76654624  0.90836304  0.95421185     0.15100
C1498       C  0.73700575  0.85171634  0.94975425    -0.23900
H1499       H  0.68605197  0.95333739  0.57756130     0.05300
H1500       H  0.70315051  0.98240650  0.03982719     0.08500
H1501       H  0.72825848  0.96213975  0.58059577     0.08500
H1502       H  0.72211024  0.82973857  0.95390032     0.08500
H1503       H  0.76113363  0.84631744  0.44916960     0.08500
H1504       H  0.73440960  0.86008300  0.91816142     0.05300
C1505       C  0.70614235  0.07689605  0.48866654    -0.20500
C1506       C  0.73917804  0.08185044  0.48211759    -0.07100
C1507       C  0.74968978  0.11192377  0.96511742     0.13800
C1508       C  0.72705463  0.13724511  0.96258889    -0.20600
C1509       C  0.69508977  0.13313733  0.97613082    -0.07100
C1510       C  0.68391927  0.10237020  0.48377029     0.13800
C1511       C  0.64852102  0.09388380  0.48627116    -0.23900
H1512       H  0.69754722  0.05283894  0.49682631     0.15100
H1513       H  0.73496635  0.16075677  0.95182679     0.15100
C1514       C  0.78423970  0.11815067  0.95264957    -0.23900
H1515       H  0.64325627  0.07389429  0.46471120     0.05300
H1516       H  0.63286433  0.11221494  0.98553386     0.08500
H1517       H  0.64233770  0.08555468  0.51719746     0.08500
H1518       H  0.79125497  0.10139747  0.92781208     0.08500
H1519       H  0.80035700  0.11293911  0.48449265     0.08500
H1520       H  0.78785505  0.14350480  0.94196096     0.05300
C1521       C  0.90237515  0.07896675  0.96633319    -0.20500
C1522       C  0.87515715  0.08203310  0.49803746    -0.07100
C1523       C  0.87662339  0.10585657  0.52902884     0.13800
C1524       C  0.90176026  0.12867703  0.52858461    -0.20600
C1525       C  0.92778419  0.12586163  0.99803864    -0.07100
C1526       C  0.92830966  0.10091959  0.96846659     0.13800
C1527       C  0.95674240  0.09624069  0.94031279    -0.23900
H1528       H  0.90317367  0.05930527  0.94450664     0.15100
H1529       H  0.90289136  0.14689440  0.55222020     0.15100
C1530       C  0.85177961  0.10800636  0.56247781    -0.23900
H1531       H  0.95409212  0.07401065  0.92152394     0.05300
H1532       H  0.97321744  0.10063504  0.44681790     0.08500
H1533       H  0.95891542  0.11719428  0.91946311     0.08500
H1534       H  0.82718702  0.10991203  0.54965301     0.08500
H1535       H  0.83926133  0.13909358  0.04661784     0.08500
H1536       H  0.85334348  0.08629182  0.58215564     0.05300
C1537       C  0.90184687  0.76944917  0.98751339    -0.20500
C1538       C  0.93248512  0.75562685  0.99076600    -0.07100
C1539       C  0.93560860  0.72107609  0.48940900     0.13800
C1540       C  0.90801741  0.70137556  0.48657739    -0.20600
C1541       C  0.87722332  0.71572372  0.98382073    -0.07100
C1542       C  0.87418932  0.75017041  0.98326858     0.13800
C1543       C  0.84288015  0.76825378  0.97916440    -0.23900
H1544       H  0.89945927  0.79575198  0.98847323     0.15100
H1545       H  0.91071964  0.67520376  0.48874861     0.15100
C1546       C  0.96830520  0.70576642  0.49468941    -0.23900
H1547       H  0.84446581  0.78480090  0.95280034     0.05300
H1548       H  0.83870942  0.78386044  0.50026439     0.08500
H1549       H  0.82210819  0.75238640  0.97416173     0.08500
H1550       H  0.97886009  0.71403004  0.52357928     0.08500
H1551       H  0.98396812  0.71595068  0.96223011     0.08500
H1552       H  0.96682680  0.67877966  0.49520852     0.05300
C1553       C  0.10392765  0.76373596  0.48278715    -0.20500
C1554       C  0.07842378  0.75919124  0.51033198    -0.07100
C1555       C  0.08169924  0.73587781  0.04093910     0.13800
C1556       C  0.10834564  0.71457377  0.04011527    -0.20600
C1557       C  0.13263157  0.71739474  0.51034402    -0.07100
C1558       C  0.13089950  0.74315390  0.48233919     0.13800
C1559       C  0.15728415  0.74878676  0.45151565    -0.23900
H1560       H  0.10261529  0.78338325  0.46112161     0.15100
H1561       H  0.11025016  0.69544819  0.06242511     0.15100
C1562       C  0.05656126  0.73173528  0.07365372    -0.23900
H1563       H  0.15247991  0.77062403  0.43285237     0.05300
H1564       H  0.15670467  0.72425862  0.92841023     0.08500
H1565       H  0.18065464  0.75254467  0.46687524     0.08500
H1566       H  0.03252513  0.72738951  0.06003942     0.08500
H1567       H  0.05196368  0.74878988  0.59081800     0.08500
H1568       H  0.06208256  0.71076680  0.09350080     0.05300
C1569       C  0.88363514  0.91947839  0.96593440    -0.20500
C1570       C  0.87868501  0.93901054  0.00036634    -0.07100
C1571       C  0.89751257  0.93275714  0.53937463     0.13800
C1572       C  0.92203995  0.90910642  0.53663698    -0.20600
C1573       C  0.92928483  0.89274533  0.50025671    -0.07100
C1574       C  0.90854957  0.89638583  0.96371627     0.13800
C1575       C  0.91239770  0.87674479  0.92551454    -0.23900
H1576       H  0.86792625  0.92237746  0.94022322     0.15100
H1577       H  0.93595625  0.90363022  0.56329123     0.15100
C1578       C  0.89212444  0.94983259  0.57911725    -0.23900
H1579       H  0.89343716  0.88260009  0.90317809     0.05300
H1580       H  0.91062241  0.85037089  0.93239405     0.08500
H1581       H  0.94177987  0.89053950  0.41417162     0.08500
H1582       H  0.91652250  0.95087363  0.09256809     0.08500
H1583       H  0.86739600  0.94468394  0.59060222     0.08500
H1584       H  0.89548684  0.97645919  0.57529761     0.05300
C1585       C  0.09527314  0.94619721  0.97999427    -0.20500
C1586       C  0.12031794  0.94163072  0.50859177    -0.07100
C1587       C  0.12325005  0.91269516  0.53141342     0.13800
C1588       C  0.09713582  0.89104082  0.53318037    -0.20600
C1589       C  0.06865017  0.89876712  0.00849544    -0.07100
C1590       C  0.06837721  0.92555252  0.98174278     0.13800
C1591       C  0.03978845  0.93391685  0.95582582    -0.23900
H1592       H  0.09492963  0.96695086  0.95985574     0.15100
H1593       H  0.09957738  0.86842888  0.54968922     0.15100
C1594       C  0.15391788  0.90289846  0.55246969    -0.23900
H1595       H  0.04672577  0.93194111  0.92352032     0.05300
H1596       H  0.02693039  0.95953084  0.47822702     0.08500
H1597       H  0.01850548  0.91819941  0.96157777     0.08500
H1598       H  0.17424026  0.91993000  0.54723650     0.08500
H1599       H  0.15690750  0.88009453  0.05301304     0.08500
H1600       H  0.14930777  0.90117582  0.58540762     0.05300
loop_ 
_geom_bond_atom_site_label_1 
_geom_bond_atom_site_label_2 
_geom_bond_distance 
_geom_bond_site_symmetry_2 
_ccdc_geom_bond_type 
O1           Cu9   2.015       .  S
O1          C811   1.279       .  A
O2           Cu9   2.016   1_655  S
O2           C12   1.279   1_554  A
O3           Cu9   2.002       .  S
O3          C813   1.275       .  A
O4           Cu9   1.995   1_655  S
O4           C14   1.276   1_554  A
O5          Cu10   2.025   1_655  S
O5          C814   1.281       .  A
O6          Cu10   2.026       .  S
O6           C13   1.282       .  A
O7          Cu10   1.990   1_655  S
O7          C812   1.273       .  A
O8          Cu10   1.977       .  S
O8           C11   1.273       .  A
Cu9        Cu810   2.373   1_554  S
Cu10       Cu809   2.372   1_455  S
C11         O801   1.279       .  A
C11         C789   1.465       .  S
C12         O807   1.273       .  A
C12        C1538   1.464       .  S
C13         O803   1.274       .  A
C13        C1554   1.486       .  S
C14         O805   1.279       .  A
C14         C773   1.487       .  S
O15         Cu23   2.026   1_565  S
O15         C825   1.281   1_554  A
O16         Cu23   2.028       .  S
O16          C26   1.281   1_554  A
O17         Cu23   1.988   1_565  S
O17         C827   1.272   1_554  A
O18         Cu23   1.981       .  S
O18          C28   1.273   1_554  A
O19         Cu24   2.018       .  S
O19         C828   1.281       .  A
O20         Cu24   2.030   1_565  S
O20          C27   1.282       .  A
O21         Cu24   1.993       .  S
O21         C826   1.273       .  A
O22         Cu24   1.982   1_565  S
O22          C25   1.275       .  A
Cu23       Cu824   2.371   1_554  S
Cu24       Cu823   2.368       .  S
C25         O815   1.282       .  A
C25         C770   1.496       .  S
C26         O821   1.273       .  A
C26         C706   1.472       .  S
C27         O817   1.273       .  A
C27         C693   1.486       .  S
C28         O819   1.281       .  A
C28         C722   1.478       .  S
O29         Cu37   2.021   1_455  S
O29          C39   1.280       .  A
O30         Cu37   2.023       .  S
O30         C840   1.281       .  A
O31         Cu37   1.995   1_455  S
O31          C41   1.274       .  A
O32         Cu37   2.006       .  S
O32         C842   1.275       .  A
O33         Cu38   2.024       .  S
O33          C42   1.280       .  A
O34         Cu38   2.026   1_455  S
O34         C841   1.281       .  A
O35         Cu38   1.980       .  S
O35          C40   1.273       .  A
O36         Cu38   1.993   1_455  S
O36         C839   1.275       .  A
Cu37       Cu838   2.369   1_554  S
Cu38       Cu837   2.373       .  S
C39         O836   1.275   1_554  A
C39         C658   1.483       .  S
C40         O830   1.280       .  A
C40         C725   1.476       .  S
C41         O834   1.281   1_554  A
C41         C674   1.488       .  S
C42         O832   1.274       .  A
C42         C645   1.471       .  S
O43         Cu51   2.023       .  S
O43         C853   1.282       .  A
O44         Cu51   2.025   1_565  S
O44          C54   1.281       .  A
O45         Cu51   1.983       .  S
O45         C855   1.272       .  A
O46         Cu51   1.981   1_565  S
O46          C56   1.274       .  A
O47         Cu52   2.015   1_565  S
O47         C856   1.280       .  A
O48         Cu52   2.026       .  S
O48          C55   1.281       .  A
O49         Cu52   1.984   1_565  S
O49         C854   1.273       .  A
O50         Cu52   1.989       .  S
O50          C53   1.274       .  A
Cu51       Cu852   2.375   1_554  S
Cu52       Cu851   2.377       .  S
C53         O843   1.282       .  A
C53         C677   1.482       .  S
C54         O849   1.273   1_554  A
C54        C1413   1.469   1_554  S
C55         O845   1.272       .  A
C55         C626   1.468       .  S
C56         O847   1.280   1_554  A
C56         C786   1.471       .  S
C57          C58   1.539       .  S
C57          C63   1.531       .  S
C57          C61   1.534       .  S
C57         C594   1.533       .  S
C58          H65   1.084       .  S
C58         C859   1.363       .  D
C59          C60   1.542       .  S
C59         C858   1.362   1_554  D
C59         C757   1.480       .  S
C60          C64   1.543       .  S
C60          C62   1.546       .  S
C60          H66   1.110       .  S
C61          H67   1.085       .  S
C61         C862   1.366       .  D
C62         C861   1.366   1_554  D
C62         C562   1.488       .  S
C63         H868   1.087       .  S
C63         C864   1.363       .  D
C64         C863   1.363       .  D
C64         C578   1.483       .  S
H68         C863   1.087       .  S
C69          C70   1.534       .  S
C69          C75   1.528       .  S
C69          C73   1.532       .  S
C69         C546   1.529       .  S
C70          H77   1.084       .  S
C70         C871   1.376       .  D
C71          C72   1.553       .  S
C71         C870   1.378       .  D
C71         C610   1.509       .  S
C72          C76   1.545       .  S
C72          C74   1.547       .  S
C72          H78   1.101       .  S
C73          H79   1.086       .  S
C73         C874   1.357       .  D
C74         C873   1.357       .  D
C74         C565   1.476       .  S
C75         H880   1.087       .  S
C75         C876   1.360   1_554  D
C76         C875   1.361       .  D
C76         C530   1.493       .  S
H80         C875   1.087       .  S
N81          C86   1.357       .  A
N81          C85   1.351       .  A
N81         H113   1.038       .  S
N82          C89   1.348       .  A
N82          C90   1.354       .  A
N83          C88   1.350       .  A
N83          C87   1.356       .  A
N83         H114   1.040       .  S
N84          C91   1.353       .  A
N84          C92   1.349       .  A
C85          C93   1.391       .  A
C85         C101   1.419       .  A
C86         C102   1.417       .  A
C86          C94   1.385       .  A
C87          C95   1.384       .  A
C87         C104   1.413       .  A
C88         C103   1.417       .  A
C88          C96   1.390       .  A
C89         C101   1.414       .  A
C89          C97   1.389       .  A
C90         C104   1.412       .  A
C90          C98   1.383       .  A
C91          C99   1.383       .  A
C91         C102   1.411       .  A
C92         C100   1.389       .  A
C92         C103   1.416       .  A
C93          C94   1.372       .  A
C93         H105   1.081       .  S
C94         H106   1.082       .  S
C95          C96   1.374       .  A
C95         H107   1.082       .  S
C96         H108   1.082       .  S
C97          C98   1.377       .  A
C97         H109   1.082       .  S
C98         H110   1.082       .  S
C99         C100   1.377       .  A
C99         H111   1.082       .  S
C100        H112   1.082       .  S
C101        C549   1.479       .  S
C102        C498   1.499       .  S
C103        C514   1.487       .  S
C104        C533   1.499       .  S
C115        C116   1.533       .  S
C115        C121   1.541       .  S
C115        C119   1.524       .  S
C115        C517   1.533       .  S
C116        H123   1.085       .  S
C116        C917   1.362       .  D
C117        C118   1.556       .  S
C117        C916   1.361   1_554  D
C117        C690   1.490       .  S
C118        C122   1.552       .  S
C118        C120   1.553       .  S
C118        H124   1.100       .  S
C119        H125   1.086       .  S
C119        C920   1.369       .  D
C120        C919   1.370   1_554  D
C120        C482   1.507       .  S
C121        H926   1.085       .  S
C121        C922   1.364       .  D
C122        C921   1.365       .  D
C122        C501   1.498       .  S
H126        C921   1.086       .  S
C127        C128   1.534       .  S
C127        C133   1.540   1_554  S
C127        C131   1.523       .  S
C127        C469   1.528       .  S
C128        H135   1.080       .  S
C128        C929   1.369   1_554  D
C129        C130   1.549       .  S
C129        C928   1.371       .  D
C129        C741   1.497       .  S
C130        C134   1.544       .  S
C130        C132   1.549       .  S
C130        H136   1.109       .  S
C131        H137   1.087       .  S
C131        C932   1.354       .  D
C132        C931   1.355       .  D
C132        C485   1.476       .  S
C133        H938   1.086       .  S
C133        C934   1.364       .  D
C134        C933   1.365       .  D
C134        C453   1.490       .  S
H138        C933   1.086       .  S
C139        C140   1.544       .  S
C139        C145   1.536       .  S
C139        C143   1.529       .  S
C139        C437   1.539       .  S
C140        H147   1.078       .  S
C140        C941   1.369       .  D
C141        C142   1.544   1_556  S
C141        C940   1.367       .  D
C141        C629   1.489   1_556  S
C142        C146   1.545       .  S
C142        C144   1.550   1_554  S
C142        H148   1.110       .  S
C143        H149   1.087       .  S
C143        C944   1.359       .  D
C144        C943   1.358       .  D
C144        C405   1.481       .  S
C145        H950   1.087       .  S
C145        C946   1.365       .  D
C146        C945   1.365   1_554  D
C146        C418   1.493       .  S
H150        C945   1.087       .  S
C151        C152   1.528       .  S
C151        C157   1.534   1_554  S
C151        C155   1.542       .  S
C151        C386   1.534       .  S
C152        H159   1.086       .  S
C152        C953   1.360       .  D
C153        C154   1.542       .  S
C153        C952   1.359       .  D
C153        C661   1.476       .  S
C154        C158   1.547       .  S
C154        C156   1.549       .  S
C154        H160   1.110       .  S
C155        H161   1.081       .  S
C155        C956   1.365       .  D
C156        C955   1.367       .  D
C156        C402   1.490       .  S
C157        H962   1.086       .  S
C157        C958   1.364       .  D
C158        C957   1.362       .  D
C158        C373   1.493       .  S
H162        C957   1.087       .  S
N163        C168   1.350       .  A
N163        C167   1.356       .  A
N163        H195   1.040       .  S
N164        C171   1.353       .  A
N164        C172   1.347       .  A
N165        C170   1.356       .  A
N165        C169   1.350       .  A
N165        H196   1.039       .  S
N166        C173   1.348       .  A
N166        C174   1.352       .  A
C167        C175   1.384       .  A
C167        C183   1.415       .  A
C168        C184   1.417       .  A
C168        C176   1.390       .  A
C169        C177   1.390       .  A
C169        C186   1.416       .  A
C170        C185   1.414       .  A
C170        C178   1.385       .  A
C171        C183   1.411       .  A
C171        C179   1.384       .  A
C172        C186   1.413       .  A
C172        C180   1.388       .  A
C173        C181   1.388       .  A
C173        C184   1.413       .  A
C174        C182   1.383       .  A
C174        C185   1.409       .  A
C175        C176   1.371       .  A
C175        H187   1.082       .  S
C176        H188   1.081       .  S
C177        C178   1.372       .  A
C177        H189   1.082       .  S
C178        H190   1.082       .  S
C179        C180   1.378       .  A
C179        H191   1.082       .  S
C180        H192   1.082       .  S
C181        C182   1.374       .  A
C181        H193   1.082       .  S
C182        H194   1.082       .  S
C183        C370   1.499       .  S
C184        C597   1.479       .  S
C185        C581   1.494       .  S
C186        C389   1.476       .  S
N197        C202   1.356       .  A
N197        C201   1.349       .  A
N197        H229   1.038       .  S
N198        C205   1.348       .  A
N198        C206   1.353       .  A
N199        C204   1.351       .  A
N199        C203   1.357       .  A
N199        H230   1.041       .  S
N200        C207   1.353       .  A
N200        C208   1.346       .  A
C201        C209   1.390       .  A
C201        C217   1.416       .  A
C202        C218   1.412       .  A
C202        C210   1.384       .  A
C203        C211   1.385       .  A
C203        C220   1.416       .  A
C204        C219   1.417       .  A
C204        C212   1.389       .  A
C205        C217   1.415       .  A
C205        C213   1.389       .  A
C206        C220   1.410       .  A
C206        C214   1.383       .  A
C207        C215   1.384       .  A
C207        C218   1.411       .  A
C208        C216   1.388       .  A
C208        C219   1.412       .  A
C209        C210   1.376       .  A
C209        H221   1.082       .  S
C210        H222   1.083       .  S
C211        C212   1.376       .  A
C211        H223   1.082       .  S
C212        H224   1.082       .  S
C213        C214   1.376       .  A
C213        H225   1.082       .  S
C214        H226   1.082       .  S
C215        C216   1.378       .  A
C215        H227   1.082       .  S
C216        H228   1.082       .  S
C217        C357   1.482       .  S
C218        C421   1.498       .  S
C219        C434   1.479       .  S
C220        C341   1.501       .  S
C231        C232   1.535       .  S
C231        C237   1.542   1_554  S
C231        C235   1.521       .  S
C231        C354   1.527       .  S
C232        H239   1.082       .  S
C232       C1033   1.368   1_554  D
C233        C234   1.554       .  S
C233       C1032   1.367       .  D
C233        C709   1.497       .  S
C234        C238   1.554       .  S
C234        C236   1.553       .  S
C234        H240   1.108       .  S
C235        H241   1.087       .  S
C235       C1036   1.357   1_554  D
C236       C1035   1.356       .  D
C236        C325   1.486       .  S
C237       H1042   1.085       .  S
C237       C1038   1.364       .  D
C238       C1037   1.368       .  D
C238        C338   1.505       .  S
H242       C1037   1.085       .  S
C243        C244   1.541       .  S
C243        C249   1.537       .  S
C243        C247   1.533       .  S
C243        C306   1.542       .  S
C244        H251   1.079       .  S
C244       C1045   1.359       .  D
C245        C246   1.550       .  S
C245       C1044   1.362   1_554  D
C245        C642   1.486       .  S
C246        C250   1.548       .  S
C246        C248   1.556   1_554  S
C246        H252   1.110       .  S
C247        H253   1.085       .  S
C247       C1048   1.368       .  D
C248       C1047   1.362       .  D
C248        C322   1.498       .  S
C249       H1054   1.086       .  S
C249       C1050   1.366       .  D
C250       C1049   1.366       .  D
C250        C290   1.494       .  S
H254       C1049   1.087       .  S
N255        C260   1.355       .  A
N255        C259   1.348       .  A
N255        H287   1.040       .  S
N256        C263   1.345       .  A
N256        C264   1.351       .  A
N257        C262   1.351       .  A
N257        C261   1.358       .  A
N257        H288   1.040       .  S
N258        C265   1.353       .  A
N258        C266   1.346       .  A
C259        C267   1.389       .  A
C259        C275   1.411       .  A
C260        C276   1.411       .  A
C260        C268   1.385       .  A
C261        C269   1.384       .  A
C261        C278   1.416       .  A
C262        C277   1.420       .  A
C262        C270   1.390       .  A
C263        C275   1.409       .  A
C263        C271   1.388       .  A
C264        C278   1.408       .  A
C264        C272   1.384       .  A
C265        C273   1.382       .  A
C265        C276   1.409       .  A
C266        C274   1.390       .  A
C266        C277   1.415       .  A
C267        C268   1.374       .  A
C267        H279   1.082       .  S
C268        H280   1.082       .  S
C269        C270   1.377       .  A
C269        H281   1.083       .  S
C270        H282   1.082       .  S
C271        C272   1.376       .  A
C271        H283   1.082       .  S
C272        H284   1.082       .  S
C273        C274   1.377       .  A
C273        H285   1.082       .  S
C274        H286   1.082       .  S
C275        C309   1.471       .  S
C276        C450   1.496       .  S
C277        C466   1.484       .  S
C278        C293   1.499       .  S
C289        C290   1.403       .  A
C289        C294   1.411       .  A
C289        H296   1.080       .  S
C290        C291   1.416       .  A
C291        C298   1.504       .  S
C291        C292   1.403       .  A
C292        C293   1.402       .  A
C292        H297   1.084       .  S
C293        C294   1.417       .  A
C294        C295   1.506       .  S
C295        H299   1.111       .  S
C295        H300   1.108       .  S
C295        H301   1.110       .  S
C298        H302   1.105       .  S
C298        H303   1.110       .  S
C298        H304   1.111       .  S
C305        C306   1.419       .  A
C305        C310   1.398       .  A
C305        H312   1.071       .  S
C306        C307   1.432       .  A
C307        C314   1.510       .  S
C307        C308   1.398       .  A
C308        C309   1.391       .  A
C308        H313   1.085       .  S
C309        C310   1.400       .  A
C310        C311   1.509       .  S
C311        H315   1.110       .  S
C311        H316   1.111       .  S
C311        H317   1.110       .  S
C314        H318   1.104       .  S
C314        H319   1.099       .  S
C314        H320   1.111       .  S
C321        C322   1.405   1_554  A
C321        C326   1.407       .  A
C321        H328   1.082       .  S
C322       C1123   1.426       .  A
C323        C330   1.503       .  S
C323        C324   1.402       .  A
C323       C1122   1.423       .  A
C324        C325   1.396       .  A
C324        H329   1.085       .  S
C325       C1126   1.416       .  A
C326        C327   1.505       .  S
C326       C1125   1.413   1_554  A
C327        H331   1.111       .  S
C327        H333   1.110       .  S
C327       H1132   1.103       .  S
C330        H334   1.110       .  S
C330        H336   1.111       .  S
C330       H1135   1.104       .  S
H332       C1127   1.105       .  S
H335       C1130   1.107       .  S
C337        C338   1.409       .  A
C337        C342   1.408       .  A
C337        H344   1.085       .  S
C338        C339   1.419       .  A
C339        C346   1.505       .  S
C339        C340   1.412       .  A
C340        C341   1.404       .  A
C340        H345   1.084       .  S
C341        C342   1.414       .  A
C342        C343   1.507       .  S
C343        H347   1.110       .  S
C343        H348   1.110       .  S
C343        H349   1.109       .  S
C346        H350   1.108       .  S
C346        H351   1.108       .  S
C346        H352   1.111       .  S
C353        C354   1.410       .  A
C353        C358   1.396       .  A
C353        H360   1.082       .  S
C354        C355   1.424       .  A
C355        C362   1.510       .  S
C355        C356   1.398       .  A
C356        C357   1.399       .  A
C356        H361   1.085       .  S
C357        C358   1.412       .  A
C358        C359   1.510       .  S
C359        H363   1.110       .  S
C359        H364   1.108       .  S
C359        H365   1.110       .  S
C362        H366   1.106       .  S
C362        H367   1.110       .  S
C362        H368   1.111       .  S
C369        C370   1.406       .  A
C369        C374   1.412       .  A
C369        H376   1.084       .  S
C370        C371   1.414       .  A
C371        C378   1.508       .  S
C371        C372   1.404       .  A
C372        C373   1.406       .  A
C372        H377   1.084       .  S
C373        C374   1.414       .  A
C374        C375   1.505       .  S
C375        H379   1.110       .  S
C375        H380   1.109       .  S
C375        H381   1.109       .  S
C378        H382   1.110       .  S
C378        H383   1.109       .  S
C378        H384   1.111       .  S
C385        C386   1.414       .  A
C385        C390   1.397       .  A
C385        H392   1.075       .  S
C386        C387   1.431       .  A
C387        C394   1.516       .  S
C387        C388   1.402       .  A
C388        C389   1.396       .  A
C388        H393   1.084       .  S
C389        C390   1.403       .  A
C390        C391   1.509       .  S
C391        H395   1.111       .  S
C391        H396   1.110       .  S
C391        H397   1.111       .  S
C394        H398   1.104       .  S
C394        H399   1.107       .  S
C394        H400   1.111       .  S
C401        C402   1.404       .  A
C401        C406   1.408       .  A
C401        H408   1.084       .  S
C402       C1203   1.419       .  A
C403        C410   1.509       .  S
C403        C404   1.401       .  A
C403       C1202   1.420   1_554  A
C404        C405   1.399   1_554  A
C404        H409   1.085       .  S
C405       C1206   1.416       .  A
C406        C407   1.505       .  S
C406       C1205   1.416       .  A
C407        H411   1.110       .  S
C407        H413   1.106       .  S
C407       H1212   1.110       .  S
C410        H414   1.110       .  S
C410        H416   1.111   1_554  S
C410       H1215   1.107       .  S
H412       C1207   1.110       .  S
H415       C1210   1.107       .  S
C417        C418   1.404       .  A
C417        C422   1.410       .  A
C417        H424   1.085       .  S
C418        C419   1.417       .  A
C419        C426   1.506       .  S
C419        C420   1.405       .  A
C420        C421   1.403       .  A
C420        H425   1.085       .  S
C421        C422   1.417       .  A
C422        C423   1.505       .  S
C423        H427   1.110       .  S
C423        H428   1.110       .  S
C423        H429   1.108       .  S
C426        H430   1.106       .  S
C426        H431   1.110       .  S
C426        H432   1.110       .  S
C433        C434   1.394       .  A
C433        C438   1.400       .  A
C433        H440   1.085       .  S
C434        C435   1.406       .  A
C435        C442   1.509       .  S
C435        C436   1.400       .  A
C436        C437   1.415       .  A
C436        H441   1.074       .  S
C437        C438   1.432       .  A
C438        C439   1.512       .  S
C439        H443   1.111       .  S
C439        H444   1.111       .  S
C439        H445   1.098       .  S
C442        H446   1.108       .  S
C442        H447   1.110       .  S
C442        H448   1.110       .  S
C449        C450   1.406       .  A
C449        C454   1.412       .  A
C449        H456   1.084       .  S
C450        C451   1.415       .  A
C451        C458   1.507       .  S
C451        C452   1.402       .  A
C452        C453   1.402       .  A
C452        H457   1.085       .  S
C453        C454   1.415       .  A
C454        C455   1.506       .  S
C455        H459   1.111       .  S
C455        H460   1.110       .  S
C455        H461   1.109       .  S
C458        H462   1.111       .  S
C458        H463   1.108       .  S
C458        H464   1.110       .  S
C465        C466   1.400       .  A
C465        C470   1.401       .  A
C465        H472   1.085       .  S
C466        C467   1.409       .  A
C467        C474   1.509       .  S
C467        C468   1.394       .  A
C468        C469   1.411       .  A
C468        H473   1.083       .  S
C469        C470   1.427       .  A
C470        C471   1.509       .  S
C471        H475   1.112       .  S
C471        H476   1.109       .  S
C471        H477   1.109       .  S
C474        H478   1.108       .  S
C474        H479   1.110       .  S
C474        H480   1.111       .  S
C481        C486   1.400       .  A
C481       C1282   1.414       .  A
C481        H488   1.083       .  S
C482        C483   1.423       .  A
C482       C1281   1.415   1_554  A
C483        C490   1.505       .  S
C483        C484   1.406       .  A
C484       C1285   1.399       .  A
C484        H489   1.083       .  S
C485        C486   1.403       .  A
C485       C1284   1.400       .  A
C486        C487   1.507       .  S
C487        H491   1.111       .  S
C487        H493   1.110       .  S
C487       H1292   1.110       .  S
C490        H494   1.108       .  S
C490        H496   1.111       .  S
C490       H1295   1.104       .  S
H492       C1287   1.110       .  S
H495       C1290   1.102       .  S
C497        C498   1.404       .  A
C497        C502   1.410       .  A
C497        H504   1.084       .  S
C498        C499   1.413       .  A
C499        C506   1.506       .  S
C499        C500   1.408       .  A
C500        C501   1.408       .  A
C500        H505   1.084       .  S
C501        C502   1.414       .  A
C502        C503   1.501       .  S
C503        H507   1.109       .  S
C503        H508   1.111       .  S
C503        H509   1.109       .  S
C506        H510   1.111       .  S
C506        H511   1.109       .  S
C506        H512   1.110       .  S
C513        C514   1.398       .  A
C513        C518   1.400       .  A
C513        H520   1.085       .  S
C514        C515   1.412       .  A
C515        C522   1.508       .  S
C515        C516   1.399       .  A
C516        C517   1.411       .  A
C516        H521   1.082       .  S
C517        C518   1.427       .  A
C518        C519   1.507       .  S
C519        H523   1.111       .  S
C519        H524   1.101       .  S
C519        H525   1.110       .  S
C522        H526   1.108       .  S
C522        H527   1.110       .  S
C522        H528   1.111       .  S
C529        C530   1.405       .  A
C529        C534   1.411       .  A
C529        H536   1.084       .  S
C530        C531   1.417       .  A
C531        C538   1.508       .  S
C531        C532   1.405       .  A
C532        C533   1.402       .  A
C532        H537   1.085       .  S
C533        C534   1.417       .  A
C534        C535   1.506       .  S
C535        H539   1.111       .  S
C535        H540   1.110       .  S
C535        H541   1.108       .  S
C538        H542   1.107       .  S
C538        H543   1.110       .  S
C538        H544   1.110       .  S
C545        C546   1.413       .  A
C545        C550   1.397       .  A
C545        H552   1.082       .  S
C546        C547   1.424       .  A
C547        C554   1.510       .  S
C547        C548   1.399       .  A
C548        C549   1.399       .  A
C548        H553   1.085       .  S
C549        C550   1.407       .  A
C550        C551   1.509       .  S
C551        H555   1.111       .  S
C551        H556   1.110       .  S
C551        H557   1.108       .  S
C554        H558   1.106       .  S
C554        H559   1.111       .  S
C554        H560   1.110       .  S
C561        C562   1.404       .  A
C561        C566   1.405       .  A
C561        H568   1.084       .  S
C562       C1363   1.418   1_554  A
C563        C570   1.505       .  S
C563        C564   1.398       .  A
C563       C1362   1.421       .  A
C564        C565   1.394       .  A
C564        H569   1.085       .  S
C565       C1366   1.419       .  A
C566        C567   1.508       .  S
C566       C1365   1.419       .  A
C567        H571   1.111       .  S
C567        H573   1.110       .  S
C567       H1372   1.108       .  S
C570        H574   1.110       .  S
C570        H576   1.111       .  S
C570       H1375   1.103       .  S
H572       C1367   1.108       .  S
H575       C1370   1.103   1_554  S
C577        C578   1.402       .  A
C577        C582   1.402       .  A
C577        H584   1.084       .  S
C578        C579   1.412       .  A
C579        C586   1.505       .  S
C579        C580   1.410       .  A
C580        C581   1.406       .  A
C580        H585   1.084       .  S
C581        C582   1.412       .  A
C582        C583   1.506       .  S
C583        H587   1.111       .  S
C583        H588   1.110       .  S
C583        H589   1.109       .  S
C586        H590   1.110       .  S
C586        H591   1.109       .  S
C586        H592   1.111       .  S
C593        C594   1.412       .  A
C593        C598   1.401       .  A
C593        H600   1.079       .  S
C594        C595   1.426       .  A
C595        C602   1.506       .  S
C595        C596   1.397       .  A
C596        C597   1.395       .  A
C596        H601   1.085       .  S
C597        C598   1.408       .  A
C598        C599   1.508       .  S
C599        H603   1.110       .  S
C599        H604   1.111       .  S
C599        H605   1.109       .  S
C602        H606   1.103       .  S
C602        H607   1.110       .  S
C602        H608   1.111       .  S
C609        C610   1.414       .  A
C609        C614   1.401       .  A
C609        H616   1.083       .  S
C610       C1411   1.426       .  A
C611        C618   1.506       .  S
C611        C612   1.405       .  A
C611       C1410   1.425       .  A
C612       C1413   1.399       .  A
C612        H617   1.085       .  S
C613        C854   1.470       .  S
C613        C614   1.403       .  A
C613       C1412   1.399       .  A
C614        C615   1.507       .  S
C615        H619   1.111       .  S
C615        H621   1.110       .  S
C615       H1420   1.110       .  S
C618        H622   1.111       .  S
C618        H624   1.109       .  S
C618       H1423   1.100       .  S
H620       C1415   1.110       .  S
H623       C1418   1.100       .  S
C625        C626   1.398       .  A
C625        C630   1.402       .  A
C625        H632   1.084       .  S
C626       C1427   1.412       .  A
C627        C634   1.508       .  S
C627        C628   1.402       .  A
C627       C1426   1.412       .  A
C628        C629   1.402       .  A
C628        H633   1.082       .  S
C629       C1430   1.421       .  A
C630        C631   1.508       .  S
C630       C1429   1.421       .  A
C631        H635   1.111       .  S
C631        H637   1.110       .  S
C631       H1436   1.109       .  S
C634        H638   1.110       .  S
C634        H640   1.111       .  S
C634       H1439   1.109       .  S
H636       C1431   1.109   1_554  S
H639       C1434   1.110       .  S
C641        C646   1.404       .  A
C641       C1442   1.401       .  A
C641        H648   1.082       .  S
C642        C643   1.417       .  A
C642       C1441   1.402   1_554  A
C643        C650   1.507       .  S
C643        C644   1.408       .  A
C644       C1445   1.402       .  A
C644        H649   1.084       .  S
C645        C646   1.413       .  A
C645       C1444   1.398       .  A
C646        C647   1.507       .  S
C647        H651   1.111       .  S
C647        H652   1.109       .  S
C647        H653   1.110       .  S
C650        H654   1.104       .  S
C650        H655   1.109       .  S
C650        H656   1.111       .  S
C657        C662   1.403       .  A
C657       C1458   1.404       .  A
C657        H664   1.084       .  S
C658        C659   1.417       .  A
C658       C1457   1.406   1_554  A
C659        C666   1.508       .  S
C659        C660   1.403       .  A
C660       C1461   1.401   1_554  A
C660        H665   1.085       .  S
C661        C662   1.409       .  A
C661       C1460   1.401       .  A
C662        C663   1.504       .  S
C663        H667   1.110       .  S
C663        H668   1.110       .  S
C663        H669   1.110       .  S
C666        H670   1.111       .  S
C666        H671   1.109       .  S
C666        H672   1.111       .  S
C673        C678   1.403       .  A
C673       C1474   1.401       .  A
C673        H680   1.085       .  S
C674        C675   1.420       .  A
C674       C1473   1.403   1_554  A
C675        C682   1.509       .  S
C675        C676   1.404       .  A
C676       C1477   1.402       .  A
C676        H681   1.084       .  S
C677        C678   1.420       .  A
C677       C1476   1.403       .  A
C678        C679   1.509       .  S
C679        H683   1.110       .  S
C679        H684   1.106       .  S
C679       H1485   1.111       .  S
C682        H687   1.109       .  S
C682        H688   1.111       .  S
C682       H1486   1.111       .  S
H685       C1479   1.111       .  S
H686       C1482   1.111       .  S
C689        C690   1.402       .  A
C689        C694   1.409       .  A
C689        H696   1.079       .  S
C690       C1491   1.420   1_554  A
C691        C698   1.507       .  S
C691        C692   1.402       .  A
C691       C1490   1.422       .  A
C692        C693   1.400       .  A
C692        H697   1.085       .  S
C693       C1494   1.419       .  A
C694        C695   1.508       .  S
C694       C1493   1.419       .  A
C695        H699   1.111       .  S
C695        H701   1.109       .  S
C695       H1500   1.111       .  S
C698        H702   1.102       .  S
C698        H704   1.110       .  S
C698       H1503   1.111       .  S
H700       C1495   1.111       .  S
H703       C1498   1.111       .  S
C705        C706   1.397       .  A
C705        C710   1.403       .  A
C705        H712   1.085   1_556  S
C706       C1507   1.412       .  A
C707        C714   1.507       .  S
C707        C708   1.405       .  A
C707       C1506   1.413       .  A
C708        C709   1.403       .  A
C708        H713   1.081       .  S
C709       C1510   1.423       .  A
C710        C711   1.508       .  S
C710       C1509   1.423       .  A
C711        H715   1.111       .  S
C711        H717   1.111   1_556  S
C711       H1516   1.107       .  S
C714        H718   1.110       .  S
C714        H720   1.111       .  S
C714       H1519   1.109       .  S
H716       C1511   1.108       .  S
H719       C1514   1.109       .  S
C721        C726   1.401       .  A
C721       C1522   1.403       .  A
C721        H728   1.084       .  S
C722        C723   1.420   1_556  A
C722       C1521   1.402       .  A
C723        C730   1.510       .  S
C723        C724   1.401       .  A
C724       C1525   1.400   1_554  A
C724        H729   1.085       .  S
C725        C726   1.417       .  A
C725       C1524   1.401       .  A
C726        C727   1.509       .  S
C727        H731   1.111       .  S
C727        H733   1.110       .  S
C727       H1532   1.111       .  S
C730        H734   1.105       .  S
C730        H736   1.110       .  S
C730       H1535   1.111       .  S
H732       C1527   1.111       .  S
H735       C1530   1.111       .  S
C737        C738   1.395       .  A
C737        C742   1.401       .  A
C737        H744   1.086       .  S
C738        C812   1.465       .  S
C738       C1539   1.404       .  A
C739        C746   1.506       .  S
C739        C740   1.405       .  A
C739       C1538   1.404       .  A
C740       C1541   1.413       .  A
C740        H745   1.084       .  S
C741        C742   1.424       .  A
C741       C1540   1.412       .  A
C742        C743   1.502       .  S
C743        H747   1.111       .  S
C743        H749   1.090       .  S
C743       H1548   1.111       .  S
C746        H750   1.110   1_556  S
C746        H752   1.111       .  S
C746       H1551   1.111       .  S
H748       C1543   1.110   1_554  S
H751       C1546   1.110       .  S
C753        C754   1.403   1_556  A
C753        C758   1.400       .  A
C753        H760   1.084       .  S
C754        C813   1.487       .  S
C754       C1555   1.421       .  A
C755        C762   1.507       .  S
C755        C756   1.408       .  A
C755       C1554   1.421       .  A
C756       C1557   1.399       .  A
C756        H761   1.084       .  S
C757        C758   1.413   1_554  A
C757       C1556   1.400       .  A
C758        C759   1.509       .  S
C759        H763   1.111       .  S
C759        H765   1.109       .  S
C759       H1564   1.108       .  S
C762        H766   1.109       .  S
C762        H768   1.111       .  S
C762       H1567   1.109       .  S
H764       C1559   1.109       .  S
H767       C1562   1.110       .  S
C769        C770   1.410       .  A
C769        C774   1.403       .  A
C769        H776   1.083       .  S
C770       C1571   1.417       .  A
C771        C778   1.508       .  S
C771        C772   1.404       .  A
C771       C1570   1.415       .  A
C772        C773   1.407   1_554  A
C772        H777   1.084       .  S
C773       C1574   1.415       .  A
C774        C775   1.509       .  S
C774       C1573   1.416       .  A
C775        H779   1.111       .  S
C775        H780   1.110       .  S
C775       H1581   1.110       .  S
C778        H783   1.109       .  S
C778        H784   1.111       .  S
C778       H1582   1.111       .  S
H781       C1575   1.110       .  S
H782       C1578   1.111       .  S
C785        C790   1.399       .  A
C785       C1586   1.399       .  A
C785        H792   1.085       .  S
C786        C787   1.417       .  A
C786       C1585   1.402   1_554  A
C787        C794   1.509       .  S
C787        C788   1.399       .  A
C788       C1589   1.399       .  A
C788        H793   1.085       .  S
C789        C790   1.415       .  A
C789       C1588   1.400       .  A
C790        C791   1.509       .  S
C791        H795   1.110       .  S
C791        H797   1.108       .  S
C791       H1596   1.111       .  S
C794        H798   1.106       .  S
C794        H800   1.110       .  S
C794       H1599   1.111       .  S
H796       C1591   1.111       .  S
H799       C1594   1.111       .  S
O801       Cu809   2.018   1_455  S
O802       Cu809   2.020       .  S
O802        C812   1.280       .  A
O803       Cu809   1.997   1_455  S
O804       Cu809   2.000       .  S
O804        C814   1.276       .  A
O805       Cu810   2.016   1_655  S
O806       Cu810   2.019       .  S
O806        C813   1.281   1_556  A
O807       Cu810   1.988   1_655  S
O808       Cu810   1.982       .  S
O808        C811   1.274   1_556  A
C811       C1589   1.469       .  S
C814       C1573   1.494       .  S
O815       Cu823   2.041   1_565  S
O816       Cu823   2.037       .  S
O816        C826   1.282       .  A
O817       Cu823   1.991   1_565  S
O818       Cu823   1.983       .  S
O818        C828   1.273       .  A
O819       Cu824   2.028       .  S
O820       Cu824   2.036   1_565  S
O820        C827   1.284       .  A
O821       Cu824   1.993       .  S
O822       Cu824   1.986   1_565  S
O822        C825   1.275       .  A
C825       C1570   1.489   1_556  S
C826       C1506   1.475       .  S
C827       C1493   1.486   1_556  S
C828       C1522   1.481       .  S
O829       Cu837   2.017   1_455  S
O829        C839   1.280       .  A
O830       Cu837   2.010       .  S
O831       Cu837   1.987   1_455  S
O831        C841   1.273       .  A
O832       Cu837   1.997       .  S
O833       Cu838   2.030       .  S
O833        C842   1.281   1_556  A
O834       Cu838   2.026   1_455  S
O835       Cu838   1.984       .  S
O835        C840   1.273   1_556  A
O836       Cu838   1.995   1_455  S
C839       C1458   1.477       .  S
C840       C1525   1.478   1_554  S
C841       C1474   1.481       .  S
C842       C1445   1.480       .  S
O843       Cu851   2.031       .  S
O844       Cu851   2.026   1_565  S
O844        C854   1.281       .  A
O845       Cu851   1.983       .  S
O846       Cu851   1.983   1_565  S
O846        C856   1.273       .  A
O847       Cu852   2.014   1_565  S
O848       Cu852   2.021       .  S
O848        C855   1.280   1_556  A
O849       Cu852   1.984   1_565  S
O850       Cu852   1.985       .  S
O850        C853   1.273   1_556  A
C853       C1477   1.485       .  S
C855       C1426   1.465       .  S
C856       C1586   1.467       .  S
C857        C858   1.540       .  S
C857        C863   1.528   1_556  S
C857        C861   1.534       .  S
C857       C1394   1.532       .  S
C858        H865   1.084       .  S
C859        C860   1.543       .  S
C859       C1557   1.478       .  S
C860        C864   1.543       .  S
C860        C862   1.550       .  S
C860        H866   1.110       .  S
C861        H867   1.085       .  S
C862       C1362   1.496       .  S
C864       C1378   1.485       .  S
C869        C870   1.535       .  S
C869        C875   1.530       .  S
C869        C873   1.534       .  S
C869       C1346   1.535       .  S
C870        H877   1.082       .  S
C871        C872   1.553   1_554  S
C871       C1410   1.508   1_554  S
C872        C876   1.544       .  S
C872        C874   1.547   1_556  S
C872        H878   1.101       .  S
C873        H879   1.085       .  S
C874       C1365   1.473       .  S
C876       C1330   1.492       .  S
N881        C886   1.359       .  A
N881        C885   1.353       .  A
N881        H913   1.035       .  S
N882        C889   1.350       .  A
N882        C890   1.355       .  A
N883        C888   1.352       .  A
N883        C887   1.356       .  A
N883        H914   1.041       .  S
N884        C891   1.354       .  A
N884        C892   1.350       .  A
C885        C893   1.390       .  A
C885        C901   1.422       .  A
C886        C902   1.420       .  A
C886        C894   1.385       .  A
C887        C895   1.384       .  A
C887        C904   1.414       .  A
C888        C903   1.419       .  A
C888        C896   1.390       .  A
C889        C901   1.418       .  A
C889        C897   1.389       .  A
C890        C904   1.413       .  A
C890        C898   1.383       .  A
C891        C899   1.383       .  A
C891        C902   1.414       .  A
C892        C900   1.389       .  A
C892        C903   1.418       .  A
C893        C894   1.371       .  A
C893        H905   1.081       .  S
C894        H906   1.082       .  S
C895        C896   1.374       .  A
C895        H907   1.082       .  S
C896        H908   1.082       .  S
C897        C898   1.375       .  A
C897        H909   1.082       .  S
C898        H910   1.082       .  S
C899        C900   1.376       .  A
C899        H911   1.082       .  S
C900        H912   1.082       .  S
C901       C1349   1.485       .  S
C902       C1298   1.502       .  S
C903       C1314   1.490       .  S
C904       C1333   1.500       .  S
C915        C916   1.533       .  S
C915        C921   1.538   1_556  S
C915        C919   1.525       .  S
C915       C1317   1.533       .  S
C916        H923   1.084       .  S
C917        C918   1.556       .  S
C917       C1490   1.491       .  S
C918        C922   1.554       .  S
C918        C920   1.552       .  S
C918        H924   1.102       .  S
C919        H925   1.086       .  S
C920       C1282   1.504       .  S
C922       C1301   1.501       .  S
C927        C928   1.535       .  S
C927        C933   1.541       .  S
C927        C931   1.522       .  S
C927       C1269   1.531       .  S
C928        H935   1.083       .  S
C929        C930   1.551       .  S
C929       C1541   1.495       .  S
C930        C934   1.546       .  S
C930        C932   1.549   1_556  S
C930        H936   1.109       .  S
C931        H937   1.087       .  S
C932       C1285   1.477       .  S
C934       C1253   1.491       .  S
C939        C940   1.542       .  S
C939        C945   1.539       .  S
C939        C943   1.527       .  S
C939       C1237   1.535       .  S
C940        H947   1.078       .  S
C941        C942   1.547       .  S
C941       C1429   1.494       .  S
C942        C946   1.543       .  S
C942        C944   1.551       .  S
C942        H948   1.110       .  S
C943        H949   1.087       .  S
C944       C1205   1.484       .  S
C946       C1218   1.493       .  S
C951        C952   1.529       .  S
C951        C957   1.531       .  S
C951        C955   1.544       .  S
C951       C1186   1.534       .  S
C952        H959   1.086       .  S
C953        C954   1.544   1_554  S
C953       C1461   1.478   1_554  S
C954        C958   1.543       .  S
C954        C956   1.548   1_556  S
C954        H960   1.110       .  S
C955        H961   1.081       .  S
C956       C1202   1.490   1_554  S
C958       C1173   1.488       .  S
N963        C968   1.351       .  A
N963        C967   1.356       .  A
N963        H995   1.034       .  S
N964        C971   1.352       .  A
N964        C972   1.346       .  A
N965        C970   1.357       .  A
N965        C969   1.351       .  A
N965        H996   1.035       .  S
N966        C973   1.348       .  A
N966        C974   1.353       .  A
C967        C975   1.385       .  A
C967        C983   1.414       .  A
C968        C984   1.416       .  A
C968        C976   1.390       .  A
C969        C977   1.389       .  A
C969        C986   1.416       .  A
C970        C985   1.416       .  A
C970        C978   1.386       .  A
C971        C983   1.409       .  A
C971        C979   1.383       .  A
C972        C986   1.412       .  A
C972        C980   1.389       .  A
C973        C981   1.388       .  A
C973        C984   1.413       .  A
C974        C982   1.383       .  A
C974        C985   1.410       .  A
C975        C976   1.371       .  A
C975        H987   1.083       .  S
C976        H988   1.081       .  S
C977        C978   1.373       .  A
C977        H989   1.082       .  S
C978        H990   1.082       .  S
C979        C980   1.376       .  A
C979        H991   1.082       .  S
C980        H992   1.082       .  S
C981        C982   1.374       .  A
C981        H993   1.082       .  S
C982        H994   1.082       .  S
C983       C1170   1.494       .  S
C984       C1397   1.478       .  S
C985       C1381   1.495       .  S
C986       C1189   1.476       .  S
N997       C1002   1.355       .  A
N997       C1001   1.350       .  A
N997       H1029   1.039       .  S
N998       C1005   1.349       .  A
N998       C1006   1.352       .  A
N999       C1004   1.351       .  A
N999       C1003   1.355       .  A
N999       H1030   1.036       .  S
N1000      C1007   1.350       .  A
N1000      C1008   1.346       .  A
C1001      C1009   1.389       .  A
C1001      C1017   1.416       .  A
C1002      C1018   1.414       .  A
C1002      C1010   1.385       .  A
C1003      C1011   1.386       .  A
C1003      C1020   1.414       .  A
C1004      C1019   1.415       .  A
C1004      C1012   1.389       .  A
C1005      C1017   1.416       .  A
C1005      C1013   1.389       .  A
C1006      C1020   1.409       .  A
C1006      C1014   1.383       .  A
C1007      C1015   1.384       .  A
C1007      C1018   1.409       .  A
C1008      C1016   1.388       .  A
C1008      C1019   1.409       .  A
C1009      C1010   1.375       .  A
C1009      H1021   1.082       .  S
C1010      H1022   1.082       .  S
C1011      C1012   1.375       .  A
C1011      H1023   1.082       .  S
C1012      H1024   1.083       .  S
C1013      C1014   1.375       .  A
C1013      H1025   1.082       .  S
C1014      H1026   1.082       .  S
C1015      C1016   1.377       .  A
C1015      H1027   1.082       .  S
C1016      H1028   1.082       .  S
C1017      C1157   1.488       .  S
C1018      C1221   1.494       .  S
C1019      C1234   1.475       .  S
C1020      C1141   1.493       .  S
C1031      C1032   1.532       .  S
C1031      C1037   1.544       .  S
C1031      C1035   1.522       .  S
C1031      C1154   1.531       .  S
C1032      H1039   1.083       .  S
C1033      C1034   1.552       .  S
C1033      C1509   1.496       .  S
C1034      C1038   1.547       .  S
C1034      C1036   1.549       .  S
C1034      H1040   1.109       .  S
C1035      H1041   1.087       .  S
C1036      C1125   1.479       .  S
C1038      C1138   1.492       .  S
C1043      C1044   1.542       .  S
C1043      C1049   1.535   1_556  S
C1043      C1047   1.527       .  S
C1043      C1106   1.538       .  S
C1044      H1051   1.080       .  S
C1045      C1046   1.546       .  S
C1045      C1442   1.482       .  S
C1046      C1050   1.545       .  S
C1046      C1048   1.555       .  S
C1046      H1052   1.110       .  S
C1047      H1053   1.082       .  S
C1048      C1122   1.506       .  S
C1050      C1090   1.490       .  S
N1055      C1060   1.354       .  A
N1055      C1059   1.350       .  A
N1055      H1087   1.039       .  S
N1056      C1063   1.347       .  A
N1056      C1064   1.351       .  A
N1057      C1062   1.350       .  A
N1057      C1061   1.354       .  A
N1057      H1088   1.042       .  S
N1058      C1065   1.353       .  A
N1058      C1066   1.349       .  A
C1059      C1067   1.389       .  A
C1059      C1075   1.412       .  A
C1060      C1076   1.412       .  A
C1060      C1068   1.385       .  A
C1061      C1069   1.385       .  A
C1061      C1078   1.412       .  A
C1062      C1077   1.416       .  A
C1062      C1070   1.389       .  A
C1063      C1075   1.411       .  A
C1063      C1071   1.388       .  A
C1064      C1078   1.410       .  A
C1064      C1072   1.384       .  A
C1065      C1073   1.383       .  A
C1065      C1076   1.410       .  A
C1066      C1074   1.389       .  A
C1066      C1077   1.417       .  A
C1067      C1068   1.374       .  A
C1067      H1079   1.082       .  S
C1068      H1080   1.082       .  S
C1069      C1070   1.375       .  A
C1069      H1081   1.082       .  S
C1070      H1082   1.082       .  S
C1071      C1072   1.379       .  A
C1071      H1083   1.082       .  S
C1072      H1084   1.082       .  S
C1073      C1074   1.378       .  A
C1073      H1085   1.082       .  S
C1074      H1086   1.082       .  S
C1075      C1109   1.477       .  S
C1076      C1250   1.496       .  S
C1077      C1266   1.490       .  S
C1078      C1093   1.493       .  S
C1089      C1090   1.403       .  A
C1089      C1094   1.408       .  A
C1089      H1096   1.078       .  S
C1090      C1091   1.416       .  A
C1091      C1098   1.506       .  S
C1091      C1092   1.405       .  A
C1092      C1093   1.402       .  A
C1092      H1097   1.084       .  S
C1093      C1094   1.412       .  A
C1094      C1095   1.506       .  S
C1095      H1099   1.111       .  S
C1095      H1100   1.110       .  S
C1095      H1101   1.110       .  S
C1098      H1102   1.106       .  S
C1098      H1103   1.110       .  S
C1098      H1104   1.110       .  S
C1105      C1106   1.415       .  A
C1105      C1110   1.400       .  A
C1105      H1112   1.073       .  S
C1106      C1107   1.433       .  A
C1107      C1114   1.511       .  S
C1107      C1108   1.399       .  A
C1108      C1109   1.393       .  A
C1108      H1113   1.085       .  S
C1109      C1110   1.403       .  A
C1110      C1111   1.508       .  S
C1111      H1115   1.111       .  S
C1111      H1116   1.110       .  S
C1111      H1117   1.110       .  S
C1114      H1118   1.097       .  S
C1114      H1119   1.110       .  S
C1114      H1120   1.111       .  S
C1121      C1122   1.406       .  A
C1121      C1126   1.412       .  A
C1121      H1128   1.081       .  S
C1123      C1130   1.510       .  S
C1123      C1124   1.402       .  A
C1124      C1125   1.396       .  A
C1124      H1129   1.085       .  S
C1126      C1127   1.505       .  S
C1127      H1131   1.111       .  S
C1127      H1133   1.110       .  S
C1130      H1134   1.105       .  S
C1130      H1136   1.111       .  S
C1137      C1138   1.406       .  A
C1137      C1142   1.405       .  A
C1137      H1144   1.085       .  S
C1138      C1139   1.416       .  A
C1139      C1146   1.505       .  S
C1139      C1140   1.407       .  A
C1140      C1141   1.402       .  A
C1140      H1145   1.084       .  S
C1141      C1142   1.414       .  A
C1142      C1143   1.507       .  S
C1143      H1147   1.110       .  S
C1143      H1148   1.110       .  S
C1143      H1149   1.109       .  S
C1146      H1150   1.108       .  S
C1146      H1151   1.109       .  S
C1146      H1152   1.111       .  S
C1153      C1154   1.409       .  A
C1153      C1158   1.398       .  A
C1153      H1160   1.082       .  S
C1154      C1155   1.427       .  A
C1155      C1162   1.510       .  S
C1155      C1156   1.400       .  A
C1156      C1157   1.400       .  A
C1156      H1161   1.085       .  S
C1157      C1158   1.413       .  A
C1158      C1159   1.509       .  S
C1159      H1163   1.110       .  S
C1159      H1164   1.108       .  S
C1159      H1165   1.110       .  S
C1162      H1166   1.105       .  S
C1162      H1167   1.110       .  S
C1162      H1168   1.111       .  S
C1169      C1170   1.405       .  A
C1169      C1174   1.411       .  A
C1169      H1176   1.084       .  S
C1170      C1171   1.412       .  A
C1171      C1178   1.507       .  S
C1171      C1172   1.403       .  A
C1172      C1173   1.404       .  A
C1172      H1177   1.083       .  S
C1173      C1174   1.413       .  A
C1174      C1175   1.505       .  S
C1175      H1179   1.111       .  S
C1175      H1180   1.109       .  S
C1175      H1181   1.110       .  S
C1178      H1182   1.110       .  S
C1178      H1183   1.109       .  S
C1178      H1184   1.111       .  S
C1185      C1186   1.413       .  A
C1185      C1190   1.398       .  A
C1185      H1192   1.075       .  S
C1186      C1187   1.433       .  A
C1187      C1194   1.516       .  S
C1187      C1188   1.401       .  A
C1188      C1189   1.394       .  A
C1188      H1193   1.084       .  S
C1189      C1190   1.403       .  A
C1190      C1191   1.508       .  S
C1191      H1195   1.111       .  S
C1191      H1196   1.110       .  S
C1191      H1197   1.111       .  S
C1194      H1198   1.104       .  S
C1194      H1199   1.107       .  S
C1194      H1200   1.111       .  S
C1201      C1202   1.404       .  A
C1201      C1206   1.407       .  A
C1201      H1208   1.084       .  S
C1203      C1210   1.509       .  S
C1203      C1204   1.402       .  A
C1204      C1205   1.401       .  A
C1204      H1209   1.085       .  S
C1206      C1207   1.505       .  S
C1207      H1211   1.110       .  S
C1207      H1213   1.106       .  S
C1210      H1214   1.110       .  S
C1210      H1216   1.111       .  S
C1217      C1218   1.406       .  A
C1217      C1222   1.410       .  A
C1217      H1224   1.084       .  S
C1218      C1219   1.417       .  A
C1219      C1226   1.506       .  S
C1219      C1220   1.402       .  A
C1220      C1221   1.401       .  A
C1220      H1225   1.085       .  S
C1221      C1222   1.417       .  A
C1222      C1223   1.507       .  S
C1223      H1227   1.110       .  S
C1223      H1228   1.110       .  S
C1223      H1229   1.108       .  S
C1226      H1230   1.106       .  S
C1226      H1231   1.110       .  S
C1226      H1232   1.110       .  S
C1233      C1234   1.393       .  A
C1233      C1238   1.398       .  A
C1233      H1240   1.085       .  S
C1234      C1235   1.406       .  A
C1235      C1242   1.510       .  S
C1235      C1236   1.398       .  A
C1236      C1237   1.415       .  A
C1236      H1241   1.073       .  S
C1237      C1238   1.430       .  A
C1238      C1239   1.512       .  S
C1239      H1243   1.110       .  S
C1239      H1244   1.111       .  S
C1239      H1245   1.099       .  S
C1242      H1246   1.108       .  S
C1242      H1247   1.110       .  S
C1242      H1248   1.111       .  S
C1249      C1250   1.405       .  A
C1249      C1254   1.411       .  A
C1249      H1256   1.084       .  S
C1250      C1251   1.416       .  A
C1251      C1258   1.507       .  S
C1251      C1252   1.403       .  A
C1252      C1253   1.404       .  A
C1252      H1257   1.085       .  S
C1253      C1254   1.414       .  A
C1254      C1255   1.505       .  S
C1255      H1259   1.111       .  S
C1255      H1260   1.110       .  S
C1255      H1261   1.109       .  S
C1258      H1262   1.111       .  S
C1258      H1263   1.108       .  S
C1258      H1264   1.110       .  S
C1265      C1266   1.400       .  A
C1265      C1270   1.401       .  A
C1265      H1272   1.085       .  S
C1266      C1267   1.414       .  A
C1267      C1274   1.510       .  S
C1267      C1268   1.397       .  A
C1268      C1269   1.410       .  A
C1268      H1273   1.083       .  S
C1269      C1270   1.426       .  A
C1270      C1271   1.509       .  S
C1271      H1275   1.111       .  S
C1271      H1276   1.107       .  S
C1271      H1277   1.110       .  S
C1274      H1278   1.107       .  S
C1274      H1279   1.111       .  S
C1274      H1280   1.110       .  S
C1281      C1286   1.401       .  A
C1281      H1288   1.083       .  S
C1282      C1283   1.423       .  A
C1283      C1290   1.505       .  S
C1283      C1284   1.406       .  A
C1284      H1289   1.083       .  S
C1285      C1286   1.404   1_554  A
C1286      C1287   1.507       .  S
C1287      H1291   1.111       .  S
C1287      H1293   1.110       .  S
C1290      H1294   1.107       .  S
C1290      H1296   1.111       .  S
C1297      C1298   1.403       .  A
C1297      C1302   1.410       .  A
C1297      H1304   1.084       .  S
C1298      C1299   1.413       .  A
C1299      C1306   1.506       .  S
C1299      C1300   1.411       .  A
C1300      C1301   1.408       .  A
C1300      H1305   1.084       .  S
C1301      C1302   1.414       .  A
C1302      C1303   1.500       .  S
C1303      H1307   1.109       .  S
C1303      H1308   1.111       .  S
C1303      H1309   1.110       .  S
C1306      H1310   1.111       .  S
C1306      H1311   1.110       .  S
C1306      H1312   1.110       .  S
C1313      C1314   1.400       .  A
C1313      C1318   1.400       .  A
C1313      H1320   1.085       .  S
C1314      C1315   1.413       .  A
C1315      C1322   1.508       .  S
C1315      C1316   1.400       .  A
C1316      C1317   1.410       .  A
C1316      H1321   1.083       .  S
C1317      C1318   1.426       .  A
C1318      C1319   1.507       .  S
C1319      H1323   1.111       .  S
C1319      H1324   1.103       .  S
C1319      H1325   1.110       .  S
C1322      H1326   1.108       .  S
C1322      H1327   1.110       .  S
C1322      H1328   1.111       .  S
C1329      C1330   1.404       .  A
C1329      C1334   1.410       .  A
C1329      H1336   1.085       .  S
C1330      C1331   1.417       .  A
C1331      C1338   1.508       .  S
C1331      C1332   1.405       .  A
C1332      C1333   1.404       .  A
C1332      H1337   1.085       .  S
C1333      C1334   1.417       .  A
C1334      C1335   1.506       .  S
C1335      H1339   1.110       .  S
C1335      H1340   1.110       .  S
C1335      H1341   1.108       .  S
C1338      H1342   1.108       .  S
C1338      H1343   1.110       .  S
C1338      H1344   1.110       .  S
C1345      C1346   1.415       .  A
C1345      C1350   1.398       .  A
C1345      H1352   1.081       .  S
C1346      C1347   1.425       .  A
C1347      C1354   1.510       .  S
C1347      C1348   1.403       .  A
C1348      C1349   1.400       .  A
C1348      H1353   1.085       .  S
C1349      C1350   1.407       .  A
C1350      C1351   1.509       .  S
C1351      H1355   1.110       .  S
C1351      H1356   1.110       .  S
C1351      H1357   1.108       .  S
C1354      H1358   1.109       .  S
C1354      H1359   1.111       .  S
C1354      H1360   1.108       .  S
C1361      C1362   1.405       .  A
C1361      C1366   1.406       .  A
C1361      H1368   1.083       .  S
C1363      C1370   1.504       .  S
C1363      C1364   1.395       .  A
C1364      C1365   1.395   1_556  A
C1364      H1369   1.085       .  S
C1366      C1367   1.508       .  S
C1367      H1371   1.111       .  S
C1367      H1373   1.110       .  S
C1370      H1374   1.109       .  S
C1370      H1376   1.111   1_556  S
C1377      C1378   1.403       .  A
C1377      C1382   1.406       .  A
C1377      H1384   1.084       .  S
C1378      C1379   1.411       .  A
C1379      C1386   1.505       .  S
C1379      C1380   1.410       .  A
C1380      C1381   1.406       .  A
C1380      H1385   1.084       .  S
C1381      C1382   1.412       .  A
C1382      C1383   1.506       .  S
C1383      H1387   1.111       .  S
C1383      H1388   1.111       .  S
C1383      H1389   1.110       .  S
C1386      H1390   1.111       .  S
C1386      H1391   1.110       .  S
C1386      H1392   1.111       .  S
C1393      C1394   1.411       .  A
C1393      C1398   1.399       .  A
C1393      H1400   1.079       .  S
C1394      C1395   1.426       .  A
C1395      C1402   1.506       .  S
C1395      C1396   1.398       .  A
C1396      C1397   1.395       .  A
C1396      H1401   1.085       .  S
C1397      C1398   1.407       .  A
C1398      C1399   1.508       .  S
C1399      H1403   1.111       .  S
C1399      H1404   1.110       .  S
C1399      H1405   1.109       .  S
C1402      H1406   1.102       .  S
C1402      H1407   1.110       .  S
C1402      H1408   1.111       .  S
C1409      C1410   1.415   1_554  A
C1409      C1414   1.401       .  A
C1409      H1416   1.083       .  S
C1411      C1418   1.506       .  S
C1411      C1412   1.406       .  A
C1412      H1417   1.085       .  S
C1413      C1414   1.403   1_556  A
C1414      C1415   1.507       .  S
C1415      H1419   1.111       .  S
C1415      H1421   1.111       .  S
C1418      H1422   1.111       .  S
C1418      H1424   1.109       .  S
C1425      C1426   1.397   1_556  A
C1425      C1430   1.401   1_556  A
C1425      H1432   1.085       .  S
C1427      C1434   1.508       .  S
C1427      C1428   1.403       .  A
C1428      C1429   1.404       .  A
C1428      H1433   1.081       .  S
C1430      C1431   1.508   1_554  S
C1431      H1435   1.111   1_556  S
C1431      H1437   1.110       .  S
C1434      H1438   1.110       .  S
C1434      H1440   1.111       .  S
C1441      C1446   1.406       .  A
C1441      H1448   1.083       .  S
C1442      C1443   1.419       .  A
C1443      C1450   1.508       .  S
C1443      C1444   1.404       .  A
C1444      H1449   1.084       .  S
C1445      C1446   1.414   1_554  A
C1446      C1447   1.507       .  S
C1447      H1451   1.111       .  S
C1447      H1452   1.110       .  S
C1447      H1453   1.110       .  S
C1450      H1454   1.104       .  S
C1450      H1455   1.108       .  S
C1450      H1456   1.111       .  S
C1457      C1462   1.405       .  A
C1457      H1464   1.084       .  S
C1458      C1459   1.416       .  A
C1459      C1466   1.508       .  S
C1459      C1460   1.404       .  A
C1460      H1465   1.084       .  S
C1461      C1462   1.409       .  A
C1462      C1463   1.504       .  S
C1463      H1467   1.111       .  S
C1463      H1468   1.110       .  S
C1463      H1469   1.108       .  S
C1466      H1470   1.111       .  S
C1466      H1471   1.109       .  S
C1466      H1472   1.111       .  S
C1473      C1478   1.404       .  A
C1473      H1480   1.084       .  S
C1474      C1475   1.418       .  A
C1475      C1482   1.509       .  S
C1475      C1476   1.405       .  A
C1476      H1481   1.084       .  S
C1477      C1478   1.420   1_554  A
C1478      C1479   1.510       .  S
C1479      H1483   1.109       .  S
C1479      H1484   1.109       .  S
C1482      H1487   1.109       .  S
C1482      H1488   1.111       .  S
C1489      C1490   1.401       .  A
C1489      C1494   1.408       .  A
C1489      H1496   1.078       .  S
C1491      C1498   1.507       .  S
C1491      C1492   1.401       .  A
C1492      C1493   1.399   1_556  A
C1492      H1497   1.085       .  S
C1494      C1495   1.508       .  S
C1495      H1499   1.111       .  S
C1495      H1501   1.109       .  S
C1498      H1502   1.101       .  S
C1498      H1504   1.110       .  S
C1505      C1506   1.398       .  A
C1505      C1510   1.405       .  A
C1505      H1512   1.085       .  S
C1507      C1514   1.507       .  S
C1507      C1508   1.404       .  A
C1508      C1509   1.404       .  A
C1508      H1513   1.081       .  S
C1510      C1511   1.508       .  S
C1511      H1515   1.111       .  S
C1511      H1517   1.110       .  S
C1514      H1518   1.110       .  S
C1514      H1520   1.111       .  S
C1521      C1526   1.404       .  A
C1521      H1528   1.084       .  S
C1522      C1523   1.420       .  A
C1523      C1530   1.509       .  S
C1523      C1524   1.400       .  A
C1524      H1529   1.084       .  S
C1525      C1526   1.417       .  A
C1526      C1527   1.509       .  S
C1527      H1531   1.111       .  S
C1527      H1533   1.109       .  S
C1530      H1534   1.109       .  S
C1530      H1536   1.109       .  S
C1537      C1538   1.395       .  A
C1537      C1542   1.400       .  A
C1537      H1544   1.086       .  S
C1539      C1546   1.505       .  S
C1539      C1540   1.403       .  A
C1540      H1545   1.084       .  S
C1541      C1542   1.421       .  A
C1542      C1543   1.502       .  S
C1543      H1547   1.111       .  S
C1543      H1549   1.092       .  S
C1546      H1550   1.109       .  S
C1546      H1552   1.111       .  S
C1553      C1554   1.403       .  A
C1553      C1558   1.401       .  A
C1553      H1560   1.084       .  S
C1555      C1562   1.507       .  S
C1555      C1556   1.409       .  A
C1556      H1561   1.084       .  S
C1557      C1558   1.412       .  A
C1558      C1559   1.508       .  S
C1559      H1563   1.111       .  S
C1559      H1565   1.108       .  S
C1562      H1566   1.110       .  S
C1562      H1568   1.111       .  S
C1569      C1570   1.408   1_556  A
C1569      C1574   1.403       .  A
C1569      H1576   1.084       .  S
C1571      C1578   1.507       .  S
C1571      C1572   1.408       .  A
C1572      C1573   1.411       .  A
C1572      H1577   1.084       .  S
C1574      C1575   1.509       .  S
C1575      H1579   1.111       .  S
C1575      H1580   1.110       .  S
C1578      H1583   1.110       .  S
C1578      H1584   1.110       .  S
C1585      C1590   1.400       .  A
C1585      H1592   1.085       .  S
C1586      C1587   1.417       .  A
C1587      C1594   1.509       .  S
C1587      C1588   1.401       .  A
C1588      H1593   1.085       .  S
C1589      C1590   1.416   1_554  A
C1590      C1591   1.509       .  S
C1591      H1595   1.110       .  S
C1591      H1597   1.108       .  S
C1594      H1598   1.107       .  S
C1594      H1600   1.110       .  S
