geometry optimzed in LAMMPS
_audit_creation_date              2020-12-01 
_audit_creation_method            'lammps2cif' 
_symmetry_space_group_name_H-M    'P1' 
_symmetry_Int_Tables_number       1 
_symmetry_cell_setting            triclinic 
loop_ 
_symmetry_equiv_pos_as_xyz 
  x,y,z 
_cell_length_a                    27.59360389 
_cell_length_b                    27.815379942068148 
_cell_length_c                    29.524651441872816 
_cell_angle_alpha                 89.66276384448184 
_cell_angle_beta                  90.78222241632284 
_cell_angle_gamma                 90.0911158919081 
loop_ 
_atom_site_label 
_atom_site_type_symbol 
_atom_site_fract_x 
_atom_site_fract_y 
_atom_site_fract_z 
_atom_site_charge 
Zr1        Zr  0.74124201  0.76723267  0.64809039     2.17500
O2          O  0.70633178  0.74357889  0.57524931    -0.51100
O3          O  0.79144693  0.83163028  0.62159784    -0.74300
O4          O  0.68405246  0.82618397  0.61971855    -0.81100
O5          O  0.82246894  0.66121471  0.64183657    -0.82900
O6          O  0.65037280  0.86084494  0.68139263    -0.78500
O7          O  0.79364354  0.72307028  0.59858723    -0.90100
O8          O  0.84582353  0.85013086  0.67739643    -0.76100
O9          O  0.74866036  0.82711365  0.70502010    -0.85600
O10         O  0.81350919  0.74918165  0.68972536    -0.85300
O11         O  0.66897349  0.76029987  0.69159852    -0.72000
O12         O  0.72973647  0.68714287  0.67643125    -0.84200
Zr13       Zr  0.73797726  0.72077118  0.82364202     2.26400
Zr14       Zr  0.67803306  0.81892171  0.75013589     2.06300
Zr15       Zr  0.80100909  0.67071683  0.72047526     2.10000
Zr16       Zr  0.82042931  0.80834074  0.74655416     1.78800
O17         O  0.78440043  0.58584607  0.70745660    -0.93000
O18         O  0.81832615  0.89337286  0.76567924    -0.40800
O19         O  0.80944415  0.72963392  0.77859207    -0.77400
O20         O  0.75026421  0.80100879  0.79363036    -0.96100
O21         O  0.66670528  0.73999505  0.78081742    -0.89400
O22         O  0.73031335  0.66172729  0.76564843    -0.92200
C23         C  0.82780444  0.85494410  0.63719210     1.01500
C24         C  0.81799778  0.68436606  0.60424550     1.14400
C25         C  0.65538751  0.85608849  0.63828763     1.05200
O26         O  0.68735979  0.90446766  0.76493527    -0.94400
O27         O  0.65694841  0.83585268  0.82816098    -0.90100
O28         O  0.69381976  0.77776876  0.87090856    -0.83300
C29         C  0.66730598  0.81560175  0.86630636     1.11900
O30         O  0.61684609  0.66616937  0.65105089    -0.96400
Zr31       Zr  0.65930526  0.68174266  0.72253556     1.88900
O32         O  0.67442710  0.66544785  0.84978379    -0.73000
O33         O  0.58982666  0.81835083  0.75320442    -0.52300
O34         O  0.57389428  0.70362087  0.72487517    -0.97000
O35         O  0.65968614  0.59572095  0.70692428    -0.54200
O36         O  0.62516596  0.64793004  0.78973767    -0.73500
C37         C  0.63691363  0.64520215  0.83163359     0.98800
O38         O  0.77354258  0.72603098  0.89951591    -0.62400
O39         O  0.88799729  0.65634266  0.71622781    -0.57200
O40         O  0.80255419  0.66477668  0.85029708    -0.93800
O41         O  0.83719563  0.63452594  0.78711508    -0.92300
O42         O  0.90551383  0.78675086  0.73960721    -0.92600
O43         O  0.86600212  0.82651217  0.81563335    -0.91400
C44         C  0.83370508  0.63788246  0.83016670     1.17700
H45         H  0.84185338  0.75030162  0.67089857     0.33600
H46         H  0.75391341  0.82366621  0.81811773     0.44500
H47         H  0.72836643  0.62976159  0.77850305     0.38000
H48         H  0.64065042  0.76689753  0.67300819     0.34500
H49         H  0.84917775  0.90660267  0.75418204     0.26200
H50         H  0.58058652  0.85268373  0.75450065     0.32200
H51         H  0.55628279  0.67287172  0.72888559     0.38100
H52         H  0.92210175  0.81729172  0.73202717     0.32600
H53         H  0.89098277  0.62460247  0.70150867     0.31400
H54         H  0.78192047  0.57134390  0.73804545     0.33100
H55         H  0.66942777  0.58005787  0.73582408     0.32100
H56         H  0.84946392  0.80795087  0.83963707     0.36100
H57         H  0.78130955  0.76048319  0.90385930     0.28800
H58         H  0.71167183  0.77125364  0.55464092     0.33000
H59         H  0.59334228  0.64016334  0.65751289     0.35900
H60         H  0.90006702  0.67968372  0.69356832     0.28500
H61         H  0.74671864  0.71923492  0.92056054     0.41400
H62         H  0.65509241  0.91842962  0.75801640     0.31400
H63         H  0.79311284  0.90721993  0.74532442     0.39000
H64         H  0.68762155  0.59095572  0.68676769     0.30900
H65         H  0.57884693  0.80777428  0.72278555     0.31000
H66         H  0.67086779  0.74264166  0.57990437     0.31200
C67         C  0.90611544  0.38197784  0.53431858     0.86700
C68         C  0.96141591  0.38146396  0.53148008    -0.53500
C69         C  0.97861124  0.40802555  0.49638251     0.09600
C70         C  0.93976548  0.43326806  0.46727238     0.20600
C71         C  0.89326580  0.43537920  0.53637538    -0.54300
C72         C  0.91116595  0.46300557  0.50153063     0.09700
C73         C  0.88803539  0.36569816  0.48737359    -0.53800
C74         C  0.90597459  0.39243755  0.45230885     0.10300
H75         H  0.98486129  0.36149112  0.55468297     0.14800
H76         H  0.95474489  0.45391872  0.43844999     0.00500
H77         H  0.87378870  0.44944303  0.56496464     0.15100
H78         H  0.86404276  0.33547906  0.48145260     0.14900
C79         C  0.10047251  0.40662962  0.43919808     0.86700
C80         C  0.04640213  0.39732241  0.44476668    -0.53500
C81         C  0.02983851  0.41069168  0.48586411     0.09600
C82         C  0.06820109  0.43271218  0.51763413     0.20600
C83         C  0.10644957  0.46066483  0.44820553    -0.54300
C84         C  0.08903052  0.47429935  0.48934395     0.09700
C85         C  0.12552629  0.38151775  0.47945880    -0.53800
C86         C  0.10863633  0.39476361  0.52082956     0.10300
H87         H  0.02309506  0.38222988  0.41848333     0.14800
H88         H  0.05367351  0.44405178  0.55082479     0.00500
H89         H  0.12109018  0.48598841  0.42379633     0.15100
H90         H  0.15416148  0.35555095  0.47453442     0.14900
C91         C  0.88245585  0.59505686  0.52796732     0.86700
C92         C  0.87940786  0.54053319  0.53066271    -0.53500
C93         C  0.90754786  0.51672399  0.50058098     0.09600
C94         C  0.93632332  0.55149274  0.46935574     0.20600
C95         C  0.93628673  0.60695429  0.53300038    -0.54300
C96         C  0.96573302  0.58371224  0.50316942     0.09700
C97         C  0.86894385  0.60742018  0.47934559    -0.53800
C98         C  0.89682261  0.58510986  0.44821419     0.10300
H99         H  0.85604688  0.52286715  0.55476797     0.14800
H100        H  0.95860439  0.53339906  0.44377703     0.00500
H101        H  0.94924650  0.63093408  0.55928046     0.15100
H102        H  0.83890064  0.63090375  0.47009718     0.14900
C103        C  0.09893550  0.59740763  0.54675829     0.86700
C104        C  0.04372692  0.60410494  0.54559066    -0.53500
C105        C  0.02035137  0.58543793  0.50797398     0.09600
C106        C  0.05608008  0.56255986  0.47437254     0.20600
C107        C  0.10601201  0.54300949  0.54090616    -0.54300
C108        C  0.08445680  0.52505297  0.50271810     0.09700
C109        C  0.11660054  0.61946055  0.50212230    -0.53800
C110        C  0.09398434  0.60158970  0.46430388     0.10300
H111        H  0.02538407  0.62036715  0.57381163     0.14800
H112        H  0.03900544  0.54745580  0.44335993     0.00500
H113        H  0.12733523  0.52086829  0.56410933     0.15100
H114        H  0.14492197  0.64654552  0.50040766     0.14900
C115        C  0.39164559  0.47223088  0.90849381     0.86700
C116        C  0.44597896  0.46869190  0.90149626    -0.53500
C117        C  0.47368364  0.50203448  0.92424041     0.09600
C118        C  0.44235618  0.53705657  0.95211998     0.20600
C119        C  0.38551061  0.47007304  0.95990819    -0.54300
C120        C  0.41205012  0.50374924  0.98363720     0.09700
C121        C  0.37885592  0.52334371  0.89523403    -0.53800
C122        C  0.40487128  0.55752225  0.91756933     0.10300
H123        H  0.45995842  0.44108631  0.87967092     0.14800
H124        H  0.46342963  0.56533795  0.96965524     0.00500
H125        H  0.36219066  0.44404271  0.97574862     0.15100
H126        H  0.35195284  0.53201660  0.86919382     0.14900
C127        C  0.39564320  0.47766429  0.11181749     0.86700
C128        C  0.38852830  0.47199232  0.06070690    -0.53500
C129        C  0.41225847  0.50552483  0.03465759     0.09600
C130        C  0.44122614  0.54217493  0.06377849     0.20600
C131        C  0.45035783  0.47748286  0.11930708    -0.54300
C132        C  0.47530971  0.50997116  0.09331794     0.09700
C133        C  0.38009564  0.52913357  0.12159851    -0.53800
C134        C  0.40384140  0.56328165  0.09711830     0.10300
H135        H  0.36692261  0.44271325  0.04736130     0.14800
H136        H  0.45970034  0.57042985  0.04408495     0.00500
H137        H  0.46706886  0.45184924  0.14228624     0.15100
H138        H  0.35137735  0.53792383  0.14496226     0.14900
C139        C  0.60673332  0.46370528  0.90874578     0.86700
C140        C  0.61390877  0.46368893  0.96040092    -0.53500
C141        C  0.59162162  0.50146697  0.98225904     0.09600
C142        C  0.56352941  0.53496581  0.94915998     0.20600
C143        C  0.55211539  0.46454062  0.90189933    -0.54300
C144        C  0.52823275  0.50083342  0.92330919     0.09700
C145        C  0.62396410  0.51282039  0.89320188    -0.53800
C146        C  0.60185838  0.55022303  0.91408020     0.10300
H147        H  0.63414226  0.43535110  0.97730677     0.14800
H148        H  0.54578518  0.56603253  0.96511175     0.00500
H149        H  0.53461385  0.43649809  0.88254278     0.15100
H150        H  0.65138183  0.51779836  0.86748632     0.14900
C151        C  0.61209891  0.48401095  0.11079369     0.86700
C152        C  0.55754779  0.47832285  0.11665871    -0.53500
C153        C  0.52965193  0.50941923  0.09108855     0.09600
C154        C  0.56057572  0.54258461  0.06054649     0.20600
C155        C  0.62065515  0.47849083  0.06015389    -0.54300
C156        C  0.59283469  0.50754392  0.03292672     0.09700
C157        C  0.62213155  0.53679140  0.12059920    -0.53800
C158        C  0.59534599  0.56776614  0.09453614     0.10300
H159        H  0.54346980  0.45188640  0.14006451     0.14800
H160        H  0.53943482  0.56831952  0.03971867     0.00500
H161        H  0.64624473  0.45247735  0.04758461     0.15100
H162        H  0.64858197  0.54885352  0.14567987     0.14900
C163        C  0.45336891  0.90471648  0.41057353     0.86700
C164        C  0.45009217  0.89907956  0.46175356    -0.53500
C165        C  0.49108486  0.91291378  0.48518585     0.09600
C166        C  0.53175883  0.93204728  0.45309555     0.20600
C167        C  0.46559793  0.95768624  0.40273583    -0.54300
C168        C  0.50645064  0.97213693  0.42501879     0.09700
C169        C  0.49807175  0.87615313  0.39838241    -0.53800
C170        C  0.53996924  0.89197880  0.41770088     0.10300
H171        H  0.41706773  0.88681882  0.47758537     0.14800
H172        H  0.56552537  0.94406169  0.47045268     0.00500
H173        H  0.44420739  0.98149496  0.38110253     0.15100
H174        H  0.49683533  0.84699320  0.37405535     0.14900
C175        C  0.58406066  0.08472169  0.40946985     0.86700
C176        C  0.57394892  0.09871227  0.45882448    -0.53500
C177        C  0.52736910  0.08913857  0.47148151     0.09600
C178        C  0.49573435  0.06629080  0.43406296     0.20600
C179        C  0.57092392  0.03124267  0.40743712    -0.54300
C180        C  0.52494349  0.02155595  0.42074972     0.09700
C181        C  0.54500424  0.11051388  0.38059295    -0.53800
C182        C  0.49846112  0.10104485  0.39314475     0.10300
H183        H  0.60115929  0.11297425  0.48202982     0.14800
H184        H  0.45826300  0.05786083  0.44496566     0.00500
H185        H  0.59604527  0.00335205  0.39734797     0.15100
H186        H  0.55421973  0.13380401  0.35240771     0.14900
C187        C  0.45580736  0.90618139  0.61156130     0.86700
C188        C  0.45215938  0.96126801  0.60999887    -0.53500
C189        C  0.48818577  0.98403229  0.58564340     0.09600
C190        C  0.52415241  0.94843907  0.56471579     0.20600
C191        C  0.45719815  0.89094395  0.56176715    -0.54300
C192        C  0.49180901  0.91410472  0.53624931     0.09700
C193        C  0.50692165  0.89685849  0.62960990    -0.53800
C194        C  0.54250559  0.91863134  0.60564873     0.10300
H195        H  0.42396798  0.97978665  0.62810791     0.14800
H196        H  0.55358827  0.96566040  0.54539317     0.00500
H197        H  0.43131970  0.86538621  0.54801383     0.15100
H198        H  0.51460376  0.87570163  0.65995193     0.14900
C199        C  0.45987219  0.11961717  0.58028154     0.86700
C200        C  0.47124260  0.12132978  0.52959075    -0.53500
C201        C  0.51054466  0.09402991  0.51845318     0.09600
C202        C  0.53413058  0.06684069  0.55887113     0.20600
C203        C  0.45324581  0.06628569  0.59062970    -0.54300
C204        C  0.49137515  0.03772638  0.57991280     0.09700
C205        C  0.50735988  0.13419263  0.60410454    -0.53800
C206        C  0.54673559  0.10697558  0.59317502     0.10300
H207        H  0.45033573  0.14193005  0.50485877     0.14800
H208        H  0.56597545  0.04505131  0.54938966     0.00500
H209        H  0.41945345  0.05278473  0.60397715     0.15100
H210        H  0.50960011  0.16502083  0.62644090     0.14900
Zr211      Zr  0.25758278  0.23494129  0.65987813     2.17500
O212        O  0.28863866  0.25952328  0.58629954    -0.51100
O213        O  0.21582254  0.16614422  0.62669450    -0.74300
O214        O  0.33189045  0.19193549  0.63950913    -0.81100
O215        O  0.15848596  0.33316005  0.64823391    -0.82900
O216        O  0.36345046  0.16229239  0.70549339    -0.78500
O217        O  0.20886821  0.28481387  0.60865304    -0.90100
O218        O  0.16950139  0.13188891  0.68116687    -0.76100
O219        O  0.25615396  0.17277795  0.71572843    -0.85600
O220        O  0.17972750  0.23705460  0.69407668    -0.85300
O221        O  0.32203041  0.25515694  0.71208867    -0.72000
O222        O  0.25024676  0.31387966  0.69167716    -0.84200
Zr223      Zr  0.23612380  0.27264663  0.83737829     2.26400
Zr224      Zr  0.31890798  0.19298197  0.76860353     2.06300
Zr225      Zr  0.17304613  0.31455574  0.72734281     2.10000
Zr226      Zr  0.17923402  0.17630175  0.75089409     1.78800
O227        O  0.16495624  0.40085323  0.71518312    -0.93000
O228        O  0.19851906  0.09364887  0.77198944    -0.40800
O229        O  0.17104128  0.25385239  0.78503538    -0.77400
O230        O  0.24199738  0.19389464  0.80483858    -0.96100
O231        O  0.31325340  0.27068438  0.80219863    -0.89400
O232        O  0.23597517  0.33395218  0.78043677    -0.92200
C233        C  0.18588515  0.13419256  0.64073882     1.01500
C234        C  0.17610171  0.31745333  0.61119801     1.14400
C235        C  0.36367511  0.16787190  0.66244537     1.05200
O236        O  0.31868333  0.10586231  0.77770190    -0.94400
O237        O  0.33501873  0.17538521  0.84725686    -0.90100
O238        O  0.28650249  0.22306839  0.88950983    -0.83300
C239        C  0.31923665  0.19024738  0.88526276     1.11900
O240        O  0.35668703  0.36924026  0.68397177    -0.96400
Zr241      Zr  0.31267035  0.33221587  0.74599431     1.88900
O242        O  0.28449882  0.33497224  0.87377019    -0.73000
O243        O  0.40509705  0.20101824  0.78598634    -0.52300
O244        O  0.40015864  0.32526160  0.75527075    -0.97000
O245        O  0.29513863  0.41663563  0.73005678    -0.54200
O246        O  0.32680378  0.37158193  0.81780605    -0.73500
C247        C  0.31416745  0.36693074  0.85926350     0.98800
O248        O  0.19091415  0.24628357  0.90358468    -0.62400
O249        O  0.08718581  0.29578195  0.71796111    -0.57200
O250        O  0.17223496  0.33092103  0.85526957    -0.93800
O251        O  0.13424852  0.35319619  0.78939903    -0.92300
O252        O  0.09264353  0.17697557  0.73365627    -0.92600
O253        O  0.13058356  0.15016528  0.81477551    -0.91400
C254        C  0.14001711  0.35475680  0.83236157     1.17700
H255        H  0.15408667  0.23189033  0.67200983     0.33600
H256        H  0.24079373  0.16967474  0.82835941     0.44500
H257        H  0.23065717  0.36526572  0.79332607     0.38000
H258        H  0.35302007  0.25549262  0.69731669     0.34500
H259        H  0.16793003  0.07564039  0.76712905     0.26200
H260        H  0.41878698  0.16859389  0.78112197     0.32200
H261        H  0.40532471  0.31760038  0.78776618     0.38100
H262        H  0.08299600  0.14266445  0.73335716     0.32600
H263        H  0.07833134  0.27887169  0.74628046     0.31400
H264        H  0.13103583  0.40547403  0.70468698     0.33100
H265        H  0.27774483  0.42852543  0.75685653     0.32100
H266        H  0.13600681  0.17510006  0.83810414     0.36100
H267        H  0.15638601  0.25215574  0.89590439     0.28800
H268        H  0.29386261  0.22953306  0.56913817     0.33000
H269        H  0.35843062  0.34385071  0.66069547     0.35900
H270        H  0.07053413  0.32720975  0.71974313     0.28500
H271        H  0.19368186  0.21078910  0.90368194     0.41400
H272        H  0.29573445  0.09935664  0.80249567     0.31400
H273        H  0.22001514  0.08218111  0.74775092     0.39000
H274        H  0.27024564  0.41608258  0.70558797     0.30900
H275        H  0.41817169  0.22093120  0.76106810     0.31000
H276        H  0.32149186  0.27246424  0.59255226     0.31200
Zr277      Zr  0.16201445  0.72852751  0.28343748     2.17500
O278        O  0.07485107  0.74321770  0.28286675    -0.51100
O279        O  0.14798208  0.66885149  0.34293805    -0.74300
O280        O  0.11834201  0.67621790  0.23016374    -0.81100
O281        O  0.19452578  0.81640943  0.37686597    -0.82900
O282        O  0.16813116  0.65496129  0.17272277    -0.78500
O283        O  0.13007099  0.79074621  0.33514092    -0.90100
O284        O  0.22101481  0.63605140  0.36196218    -0.76100
O285        O  0.21904933  0.66767098  0.26315383    -0.85600
O286        O  0.22755825  0.73203191  0.33647853    -0.85300
O287        O  0.18705375  0.74653283  0.20697755    -0.72000
O288        O  0.19452424  0.80797573  0.27413126    -0.84200
Zr289      Zr  0.34482112  0.76902690  0.23190230     2.26400
Zr290      Zr  0.24662289  0.68687916  0.18838539     2.06300
Zr291      Zr  0.26116167  0.80964166  0.32626409     2.10000
Zr292      Zr  0.28420371  0.67218423  0.31644934     1.78800
O293        O  0.23962952  0.89414720  0.33293241    -0.93000
O294        O  0.29058548  0.58732766  0.29715282    -0.40800
O295        O  0.32046097  0.75029478  0.30822838    -0.77400
O296        O  0.31179492  0.68958340  0.24204011    -0.96100
O297        O  0.27979967  0.76525471  0.17808811    -0.89400
O298        O  0.28716911  0.82891602  0.25161202    -0.92200
C299        C  0.17515593  0.64079275  0.36693547     1.01500
C300        C  0.14919569  0.81447709  0.36842812     1.14400
C301        C  0.12731011  0.65523405  0.19244330     1.05200
O302        O  0.25121733  0.59958305  0.18358444    -0.94400
O303        O  0.32070705  0.66647292  0.14934231    -0.90100
O304        O  0.38221533  0.70993918  0.18078734    -0.85700
C305        C  0.36585777  0.67674070  0.15424291     1.11900
O306        O  0.13999543  0.85448135  0.18512341    -0.96400
Zr307      Zr  0.22188693  0.82443758  0.19886424     1.88900
O308        O  0.35611820  0.82982542  0.17321682    -0.73000
O309        O  0.23206073  0.69551292  0.10711879    -0.52300
O310        O  0.19782739  0.81005558  0.12032253    -0.97000
O311        O  0.21339547  0.91045038  0.21285531    -0.54200
O312        O  0.28385898  0.86574019  0.15738282    -0.73500
C313        C  0.32943363  0.86073583  0.15212927     0.98800
O314        O  0.43195928  0.75440235  0.23386841    -0.62400
O315        O  0.29467853  0.80150291  0.40276269    -0.57200
O316        O  0.38674431  0.82581008  0.28262865    -0.93800
O317        O  0.33368091  0.85367199  0.33459466    -0.92300
O318        O  0.31618337  0.67983207  0.39339252    -0.92600
O319        O  0.36525624  0.63951809  0.32848698    -0.91400
C320        C  0.37525011  0.85211858  0.31660934     1.17700
H321        H  0.21719720  0.72826923  0.36739807     0.33600
H322        H  0.33524211  0.66486958  0.23605170     0.44500
H323        H  0.30138820  0.86062062  0.25058244     0.38000
H324        H  0.15968766  0.74542364  0.18631277     0.34500
H325        H  0.29368280  0.57038749  0.32664761     0.26200
H326        H  0.22919575  0.66211505  0.09592411     0.32200
H327        H  0.21806848  0.83199257  0.10200938     0.38100
H328        H  0.28761602  0.67768482  0.41322178     0.32600
H329        H  0.28688692  0.83222206  0.41778730     0.31400
H330        H  0.24819951  0.90263922  0.36456978     0.33100
H331        H  0.24638297  0.92216230  0.22050856     0.32100
H332        H  0.38635188  0.65944953  0.30901971     0.36100
H333        H  0.44719813  0.78558616  0.22613057     0.28800
H334        H  0.05937878  0.71146605  0.28757995     0.33000
H335        H  0.14227476  0.87568335  0.15816731     0.35900
H336        H  0.27394774  0.77736953  0.41790839     0.28500
H337        H  0.44038971  0.74876088  0.26616632     0.41400
H338        H  0.28535305  0.59142814  0.19091357     0.31400
H339        H  0.25800863  0.57826788  0.28560370     0.39000
H340        H  0.19559189  0.91250560  0.24166426     0.30900
H341        H  0.19890563  0.70879969  0.10406526     0.31000
H342        H  0.06646156  0.75243386  0.25127815     0.31200
Zr343      Zr  0.78172131  0.23071727  0.32970578     2.17500
O344        O  0.77490770  0.25792027  0.40782814    -0.51100
O345        O  0.83437637  0.16505344  0.35076520    -0.74300
O346        O  0.72173850  0.18592171  0.37328511    -0.81100
O347        O  0.87242557  0.33389333  0.31370084    -0.82900
O348        O  0.67159131  0.15031506  0.32190800    -0.78500
O349        O  0.84505392  0.27786005  0.36385515    -0.90100
O350        O  0.84908273  0.12105951  0.28784205    -0.76100
O351        O  0.76271679  0.16689554  0.27939422    -0.85600
O352        O  0.84391217  0.23176757  0.27412155    -0.85300
O353        O  0.70267187  0.25066566  0.30102693    -0.72000
O354        O  0.77993488  0.30922607  0.29591381    -0.84200
Zr355      Zr  0.74067582  0.26522593  0.15867503     2.26400
Zr356      Zr  0.68477304  0.18715541  0.24898551     2.06300
Zr357      Zr  0.84111130  0.30973934  0.23884849     2.10000
Zr358      Zr  0.82341803  0.16891638  0.22306790     1.78800
O359        O  0.85140747  0.39668566  0.23703637    -0.93000
O360        O  0.79750706  0.08767477  0.20408018    -0.40800
O361        O  0.82048568  0.24635826  0.18710829    -0.77400
O362        O  0.74511912  0.18618209  0.19129141    -0.96100
O363        O  0.67989914  0.26510286  0.21452212    -0.89400
O364        O  0.76237350  0.32887517  0.20856438    -0.92200
C365        C  0.85178840  0.12856699  0.33057576     1.01500
C366        C  0.87061818  0.31451441  0.35340290     1.14400
C367        C  0.68641384  0.15799177  0.36254730     1.05200
O368        O  0.66653120  0.10203165  0.23967685    -0.94400
O369        O  0.64176569  0.16732263  0.17987041    -0.90100
O370        O  0.67350475  0.21807585  0.12742377    -0.83300
C371        C  0.64413420  0.18473060  0.13982187     1.11900
O372        O  0.67438387  0.35146082  0.33990793    -0.96400
Zr373      Zr  0.70181884  0.32813243  0.26506534     1.88900
O374        O  0.68720155  0.33152430  0.13841603    -0.73000
O375        O  0.60134471  0.20550701  0.26845997    -0.52300
O376        O  0.61388034  0.33310070  0.27030390    -0.97000
O377        O  0.73343790  0.40755808  0.28396859    -0.54200
O378        O  0.67156489  0.37493840  0.20150188    -0.73500
C379        C  0.66854688  0.36747590  0.15878535     0.98800
O380        O  0.75078361  0.24634538  0.07872191    -0.62400
O381        O  0.92796166  0.29410779  0.23870812    -0.57200
O382        O  0.80291992  0.30759479  0.11753659    -0.93800
O383        O  0.86489932  0.33532578  0.16177623    -0.92300
O384        O  0.91151382  0.16595557  0.21883229    -0.92600
O385        O  0.85249807  0.14529081  0.14890545    -0.91400
C386        C  0.84351052  0.32958241  0.12308994     1.17700
H387        H  0.87529875  0.22615537  0.28793113     0.33600
H388        H  0.73763953  0.16210626  0.16877481     0.44500
H389        H  0.76373293  0.35940509  0.19284851     0.38000
H390        H  0.67930589  0.25085820  0.32504096     0.34500
H391        H  0.82716988  0.06790831  0.20741433     0.26200
H392        H  0.58821206  0.22349723  0.24201430     0.32200
H393        H  0.60121986  0.31565349  0.24350154     0.38100
H394        H  0.91968207  0.13138767  0.22154623     0.32600
H395        H  0.93305551  0.27364379  0.21188238     0.31400
H396        H  0.88519221  0.40178589  0.22716495     0.33100
H397        H  0.73398976  0.42535631  0.25485464     0.32100
H398        H  0.82593996  0.15419866  0.12759314     0.36100
H399        H  0.74763917  0.21096207  0.07647253     0.28800
H400        H  0.78010017  0.22909297  0.42713455     0.33000
H401        H  0.65891861  0.38330305  0.33567578     0.35900
H402        H  0.94289238  0.32536418  0.23070656     0.28500
H403        H  0.72165808  0.25937456  0.06300819     0.41400
H404        H  0.68760691  0.09124995  0.21484807     0.31400
H405        H  0.77706045  0.07758796  0.22975198     0.39000
H406        H  0.76804961  0.40238406  0.29179466     0.30900
H407        H  0.58443742  0.17408968  0.26741855     0.31000
H408        H  0.74043036  0.26662419  0.41169955     0.31200
Zr409      Zr  0.77389180  0.27877511  0.84483058     2.17500
O410        O  0.80843207  0.26266247  0.91989581    -0.51100
O411        O  0.72960501  0.34847713  0.86999172    -0.74300
O412        O  0.84265701  0.33129805  0.86240293    -0.81100
O413        O  0.67906524  0.18335605  0.85778238    -0.82900
O414        O  0.88073472  0.34678689  0.79600347    -0.78500
O415        O  0.72602103  0.23387328  0.89963087    -0.90100
O416        O  0.68032250  0.37255381  0.81183138    -0.76100
O417        O  0.77706745  0.33268471  0.78197402    -0.85600
O418        O  0.69775931  0.27270551  0.80582075    -0.85300
O419        O  0.84068142  0.25181740  0.80028184    -0.72000
O420        O  0.76506839  0.19677086  0.82148132    -0.84200
Zr421      Zr  0.75969054  0.21633269  0.67152554     2.26400
Zr422      Zr  0.84085033  0.30405338  0.73544087     2.06300
Zr423      Zr  0.69126612  0.19221136  0.77881124     2.10000
Zr424      Zr  0.70107148  0.32684733  0.74398241     1.78800
O425        O  0.68588024  0.10581572  0.79161648    -0.93000
O426        O  0.72439959  0.40941884  0.72652699    -0.40800
O427        O  0.69368193  0.24601074  0.71607054    -0.77400
O428        O  0.76465369  0.29959203  0.69554137    -0.96100
O429        O  0.83488869  0.22220621  0.71221401    -0.89400
O430        O  0.75635075  0.16294857  0.73480847    -0.92200
C431        C  0.69659299  0.37552031  0.85285103     1.01500
C432        C  0.69423341  0.20033544  0.89543258     1.14400
C433        C  0.87623439  0.35099163  0.83887796     1.05200
O434        O  0.85424590  0.38774277  0.71463472    -0.94400
O435        O  0.85635924  0.31458310  0.65591568    -0.90100
O436        O  0.80546372  0.26506012  0.61697163    -0.83300
C437        C  0.83858457  0.29766197  0.61900459     1.11900
O438        O  0.86313534  0.14694468  0.85093682    -0.96400
Zr439      Zr  0.83058052  0.17048763  0.77682747     1.88900
O440        O  0.81482840  0.15019996  0.65118808    -0.73000
O441        O  0.92625608  0.28393294  0.72757536    -0.52300
O442        O  0.91889891  0.17244157  0.77723574    -0.97000
O443        O  0.81036528  0.08808320  0.79841447    -0.54200
O444        O  0.85534948  0.12390068  0.71422469    -0.73500
C445        C  0.84576924  0.12281775  0.67197178     0.98800
O446        O  0.72555425  0.21149465  0.59501767    -0.62400
O447        O  0.60498568  0.20327732  0.79233192    -0.57200
O448        O  0.68395755  0.17151592  0.65166934    -0.93800
O449        O  0.64323700  0.16121692  0.71738715    -0.92300
O450        O  0.61307396  0.32141231  0.74645756    -0.92600
O451        O  0.66194397  0.35665570  0.67491955    -0.91400
C452        C  0.64695981  0.15697032  0.67451912     1.17700
H453        H  0.67119890  0.28005279  0.82557240     0.33600
H454        H  0.76415110  0.32116774  0.66982831     0.44500
H455        H  0.75047542  0.13035250  0.72502149     0.38000
H456        H  0.87080134  0.25422955  0.81717489     0.34500
H457        H  0.69410880  0.42821700  0.72892171     0.26200
H458        H  0.92832844  0.26711314  0.69819618     0.32200
H459        H  0.92757018  0.18720785  0.74786404     0.38100
H460        H  0.60559587  0.28777005  0.73807782     0.32600
H461        H  0.59419684  0.17268108  0.80625794     0.31400
H462        H  0.65591826  0.10123393  0.80920462     0.33100
H463        H  0.79441418  0.07373245  0.77147358     0.32100
H464        H  0.65280434  0.32731540  0.65797113     0.36100
H465        H  0.71909892  0.24514276  0.58558470     0.28800
H466        H  0.80830895  0.29387942  0.93586053     0.33000
H467        H  0.88760283  0.12180372  0.84507854     0.35900
H468        H  0.60297200  0.22707321  0.81702867     0.28500
H469        H  0.75238419  0.20066786  0.57565171     0.41400
H470        H  0.82180905  0.39978645  0.70550965     0.31400
H471        H  0.74428171  0.41985032  0.75287552     0.39000
H472        H  0.78412437  0.09128593  0.82073432     0.30900
H473        H  0.94251916  0.31519338  0.72233016     0.31000
H474        H  0.84307696  0.25543630  0.91491696     0.31200
C475        C  0.60356425  0.90067827  0.95341203     0.86700
C476        C  0.54857413  0.89659952  0.95931558    -0.53500
C477        C  0.53190845  0.91941379  0.99674222     0.09600
C478        C  0.57158382  0.94489106  0.02515974     0.20600
C479        C  0.61326992  0.95489387  0.95362197    -0.54300
C480        C  0.59674376  0.97886684  0.99109888     0.09700
C481        C  0.62623330  0.88301981  0.99845522    -0.53800
C482        C  0.60935219  0.90566970  0.03583587     0.10300
H483        H  0.52493669  0.87701397  0.93617906     0.14800
H484        H  0.55786200  0.96281708  0.05586833     0.00500
H485        H  0.63040880  0.97219491  0.92506066     0.15100
H486        H  0.65549184  0.85722558  0.00131866     0.14900
C487        C  0.61798043  0.11341645  0.96817499     0.86700
C488        C  0.62650463  0.05951673  0.96567279    -0.53500
C489        C  0.60028840  0.03260053  0.99563241     0.09600
C490        C  0.56931782  0.06422338  0.02764252     0.20600
C491        C  0.56301087  0.11958206  0.96387386    -0.54300
C492        C  0.53664855  0.09366350  0.99456564     0.09700
C493        C  0.63078231  0.12641078  0.01644988    -0.53800
C494        C  0.60459966  0.10228011  0.04802850     0.10300
H495        H  0.65041643  0.04459388  0.94061079     0.14800
H496        H  0.54959081  0.04375009  0.05369679     0.00500
H497        H  0.54715788  0.14260593  0.93796062     0.15100
H498        H  0.65768464  0.15307998  0.02582602     0.14900
C499        C  0.41315491  0.90881805  0.06039264     0.86700
C500        C  0.46689471  0.90163850  0.05094852    -0.53500
C501        C  0.48052053  0.91849932  0.00967491     0.09600
C502        C  0.43867195  0.94069153  0.98109610     0.20600
C503        C  0.40486282  0.96297592  0.05397838    -0.54300
C504        C  0.41806418  0.97970669  0.01234425     0.09700
C505        C  0.38638103  0.88480899  0.02076893    -0.53800
C506        C  0.39894237  0.90144024  0.97883850     0.10300
H507        H  0.49229237  0.88581136  0.07516451     0.14800
H508        H  0.45013133  0.95466356  0.94757405     0.00500
H509        H  0.39129796  0.98620674  0.08038636     0.15100
H510        H  0.35997350  0.85674279  0.02671040     0.14900
C511        C  0.39984562  0.10767317  0.96437511     0.86700
C512        C  0.45480404  0.11407249  0.95985865    -0.53500
C513        C  0.48219996  0.09283996  0.99373465     0.09600
C514        C  0.45077484  0.06686133  0.02924862     0.20600
C515        C  0.39282604  0.05275013  0.96765725    -0.54300
C516        C  0.41937242  0.03163868  0.00173211     0.09700
C517        C  0.38866312  0.12641696  0.01185162    -0.53800
C518        C  0.41520730  0.10502679  0.04549923     0.10300
H519        H  0.46986051  0.13319617  0.93125862     0.14800
H520        H  0.47091971  0.04931167  0.05748719     0.00500
H521        H  0.36883708  0.03252302  0.94535774     0.15100
H522        H  0.36075249  0.15233787  0.01948877     0.14900
Zr523      Zr  0.23823669  0.74083583  0.85481218     2.17500
O524        O  0.20593394  0.77040359  0.92590037    -0.51100
O525        O  0.29204399  0.68228726  0.88977272    -0.74300
O526        O  0.17398031  0.68700697  0.88369490    -0.81100
O527        O  0.33060563  0.84643949  0.85378110    -0.82900
O528        O  0.13467629  0.65482083  0.82272142    -0.78500
O529        O  0.28770420  0.79604896  0.89941758    -0.90100
O530        O  0.34238251  0.65544869  0.83512665    -0.76100
O531        O  0.24032219  0.67587685  0.80254504    -0.85600
O532        O  0.31192460  0.75005893  0.81389611    -0.85300
O533        O  0.16731594  0.75084511  0.80792413    -0.72000
O534        O  0.23607989  0.81850672  0.81868189    -0.84200
Zr535      Zr  0.23790044  0.77299792  0.67587328     2.26400
Zr536      Zr  0.17089286  0.68648303  0.75389927     2.06300
Zr537      Zr  0.30882098  0.82613254  0.77568359     2.10000
Zr538      Zr  0.31342181  0.68588570  0.76170695     1.78800
O539        O  0.30247680  0.91323197  0.77983302    -0.93000
O540        O  0.30418785  0.59914997  0.75396712    -0.40800
O541        O  0.30949526  0.76167172  0.72254620    -0.77400
O542        O  0.24407643  0.69498186  0.71184141    -0.96100
O543        O  0.16626388  0.76366070  0.71851623    -0.89400
O544        O  0.23817126  0.83751180  0.72882389    -0.92200
C545        C  0.32817656  0.65751207  0.87639326     1.01500
C546        C  0.31817990  0.83035753  0.89287991     1.14400
C547        C  0.14052313  0.66050169  0.86567115     1.05200
O548        O  0.17989508  0.59979035  0.74744768    -0.94400
O549        O  0.14887539  0.66550890  0.67570417    -0.90100
O550        O  0.18456223  0.72126561  0.63019299    -0.83300
C551        C  0.15687197  0.68462852  0.63666846     1.11900
O552        O  0.14315735  0.87033500  0.83979904    -0.96400
Zr553      Zr  0.16586967  0.82764095  0.77133786     1.88900
O554        O  0.17558797  0.82715232  0.64416758    -0.73000
O555        O  0.08306539  0.68795832  0.74399664    -0.52300
O556        O  0.08041792  0.81423626  0.78719501    -0.97000
O557        O  0.17003964  0.91481880  0.76146687    -0.54200
O558        O  0.12340869  0.84262217  0.70110113    -0.73500
C559        C  0.13554899  0.84401391  0.65952381     0.98800
O560        O  0.27668216  0.75054421  0.60544639    -0.62400
O561        O  0.39698993  0.82902843  0.78215254    -0.57200
O562        O  0.29918805  0.82841574  0.64536166    -0.93800
O563        O  0.34682595  0.85143025  0.70496741    -0.92300
O564        O  0.40027179  0.70166639  0.76357612    -0.92600
O565        O  0.35520978  0.65372058  0.69636678    -0.91400
C566        C  0.33660877  0.85003582  0.66229257     1.17700
H567        H  0.33988610  0.74893918  0.83388485     0.33600
H568        H  0.24536433  0.67029907  0.68898197     0.44500
H569        H  0.23920486  0.86813635  0.71327781     0.38000
H570        H  0.13844469  0.74840166  0.82589667     0.34500
H571        H  0.33518056  0.58563702  0.76554235     0.26200
H572        H  0.07287779  0.65390677  0.74645064     0.32200
H573        H  0.06822605  0.79458804  0.76160350     0.38100
H574        H  0.41510667  0.67116231  0.77423947     0.32600
H575        H  0.40455553  0.86288048  0.78975300     0.31400
H576        H  0.33317961  0.92530477  0.76699585     0.33100
H577        H  0.17204968  0.92059976  0.72842531     0.32100
H578        H  0.33209991  0.65778177  0.67069111     0.36100
H579        H  0.27532697  0.71497584  0.60471873     0.28800
H580        H  0.20609185  0.74256303  0.94694733     0.33000
H581        H  0.11280528  0.88764774  0.83204030     0.35900
H582        H  0.40531192  0.81065329  0.80999367     0.28500
H583        H  0.25413602  0.76126689  0.58105446     0.41400
H584        H  0.14717448  0.58672700  0.75335294     0.31400
H585        H  0.28017954  0.58988351  0.77705729     0.39000
H586        H  0.20232737  0.92407342  0.77360232     0.30900
H587        H  0.07067826  0.70322660  0.77173885     0.31000
H588        H  0.17125485  0.77697633  0.91943699     0.31200
C589        C  0.90044496  0.03916875  0.58266087     0.86700
C590        C  0.95523842  0.03855174  0.59128212    -0.53500
C591        C  0.97927925  0.99990320  0.57295076     0.09600
C592        C  0.94423683  0.96498660  0.54815040     0.20600
C593        C  0.89490600  0.03606422  0.53176046    -0.54300
C594        C  0.91747150  0.99744663  0.51263560     0.09700
C595        C  0.88227557  0.99136632  0.60056986    -0.53800
C596        C  0.90499683  0.95228535  0.58338166     0.10300
H597        H  0.97247828  0.06796782  0.60907720     0.14800
H598        H  0.96196757  0.93281055  0.53417799     0.00500
H599        H  0.87570319  0.06382865  0.51311116     0.15100
H600        H  0.85436587  0.98877405  0.62611626     0.14900
C601        C  0.11596036  0.02419834  0.59114651     0.86700
C602        C  0.12311175  0.02619433  0.53967856    -0.53500
C603        C  0.09722737  0.99212142  0.51550879     0.09600
C604        C  0.06545207  0.96005306  0.54637003     0.20600
C605        C  0.06159629  0.02830138  0.59742998    -0.54300
C606        C  0.03390295  0.99599716  0.57380150     0.09700
C607        C  0.12829559  0.97285918  0.60417934    -0.53800
C608        C  0.10250882  0.93908661  0.58096982     0.10300
H609        H  0.14733778  0.05176287  0.52439013     0.14800
H610        H  0.04447964  0.93204391  0.52831710     0.00500
H611        H  0.04712468  0.05571858  0.61926390     0.15100
H612        H  0.15583819  0.96370708  0.62947405     0.14900
C613        C  0.90059303  0.01208445  0.38339396     0.86700
C614        C  0.89141520  0.02014310  0.43361001    -0.53500
C615        C  0.91797422  0.99126230  0.46240247     0.09600
C616        C  0.95012192  0.95529109  0.43702932     0.20600
C617        C  0.95515812  0.01654130  0.37798216    -0.54300
C618        C  0.98191707  0.98736630  0.40608519     0.09700
C619        C  0.88937114  0.95929195  0.37607641    -0.53800
C620        C  0.91489829  0.92934952  0.40425469     0.10300
H621        H  0.86575510  0.04699982  0.44430408     0.14800
H622        H  0.97023855  0.93027535  0.45944290     0.00500
H623        H  0.97034899  0.04122918  0.35349302     0.15100
H624        H  0.86216344  0.94656239  0.35201871     0.14900
C625        C  0.11738053  0.01714953  0.38878088     0.86700
C626        C  0.06239427  0.02204423  0.38297985    -0.53500
C627        C  0.03598550  0.98878536  0.40695171     0.09600
C628        C  0.06817088  0.95377607  0.43456465     0.20600
C629        C  0.12663466  0.01937818  0.43953346    -0.54300
C630        C  0.10004545  0.98763802  0.46469878     0.09700
C631        C  0.12801159  0.96551799  0.37541942    -0.53800
C632        C  0.10175978  0.93202219  0.39832875     0.10300
H633        H  0.04677348  0.05004499  0.36181698     0.14800
H634        H  0.04836749  0.92574507  0.45334650     0.00500
H635        H  0.15075181  0.04634440  0.45346384     0.15100
H636        H  0.15093163  0.95636783  0.34708954     0.14900
Zr637      Zr  0.65356907  0.76634951  0.23801485     2.17500
O638        O  0.57078507  0.74314899  0.25652666    -0.51100
O639        O  0.62396011  0.82230783  0.17899351    -0.74300
O640        O  0.61733984  0.82013513  0.29359997    -0.81100
O641        O  0.67271739  0.66980783  0.14812133    -0.82900
O642        O  0.67170750  0.84613041  0.34684177    -0.78500
O643        O  0.61445603  0.70373145  0.19124019    -0.90100
O644        O  0.68948346  0.86069135  0.15020408    -0.76100
O645        O  0.70757490  0.83225957  0.24985561    -0.85600
O646        O  0.70805254  0.76574626  0.17630859    -0.85300
O647        O  0.69342823  0.75172283  0.31031776    -0.72000
O648        O  0.69469327  0.69029404  0.24355958    -0.84200
Zr649      Zr  0.84348032  0.74242808  0.26293084     2.26400
Zr650      Zr  0.74906881  0.81753310  0.32073147     2.06300
Zr651      Zr  0.74970504  0.69112247  0.18157660     2.10000
Zr652      Zr  0.76190011  0.83136418  0.18807925     1.78800
O653        O  0.74062473  0.60419420  0.17726445    -0.93000
O654        O  0.76161362  0.91691453  0.20534847    -0.40800
O655        O  0.80487417  0.75665380  0.19097116    -0.77400
O656        O  0.80389086  0.81909749  0.25867984    -0.96100
O657        O  0.79034106  0.74262238  0.32551909    -0.89400
O658        O  0.78986366  0.67633507  0.25239738    -0.92200
C659        C  0.64388420  0.85183780  0.15106558     1.01500
C660        C  0.62855536  0.67516352  0.15977695     1.14400
C661        C  0.62887401  0.84326403  0.32988321     1.05200
O662        O  0.75261496  0.90498644  0.32293298    -0.94400
O663        O  0.82899102  0.83621188  0.35261143    -0.90100
O664        O  0.88662290  0.79441855  0.31499130    -0.83300
C665        C  0.87331255  0.82499241  0.34456730     1.11900
O666        O  0.66149030  0.64077139  0.34064843    -0.96400
Zr667      Zr  0.73675883  0.67696087  0.31454069     1.88900
O668        O  0.87589359  0.68852134  0.32041981    -0.73000
O669        O  0.74888897  0.80778578  0.40278732    -0.52300
O670        O  0.72354105  0.68624180  0.39549942    -0.97000
O671        O  0.73312468  0.59101363  0.29898813    -0.54200
O672        O  0.81249653  0.64586876  0.34849667    -0.73500
C673        C  0.85795370  0.65647376  0.34668321     0.98800
O674        O  0.91952175  0.77028618  0.23052323    -0.62400
O675        O  0.76118354  0.70358367  0.10058151    -0.57200
O676        O  0.88036113  0.68245998  0.21604892    -0.93800
O677        O  0.82681335  0.65773355  0.16157935    -0.92300
O678        O  0.77997786  0.82331985  0.10791198    -0.92600
O679        O  0.83554132  0.87131938  0.16313850    -0.91400
C680        C  0.86855439  0.65800843  0.18094258     1.17700
H681        H  0.69142953  0.76757426  0.14737558     0.33600
H682        H  0.82712258  0.84481950  0.26238978     0.44500
H683        H  0.80680161  0.64598511  0.25216681     0.38000
H684        H  0.66977097  0.75148863  0.33412291     0.34500
H685        H  0.75546171  0.93305592  0.17584921     0.26200
H686        H  0.74613711  0.84086957  0.41467357     0.32200
H687        H  0.75609894  0.69212762  0.40885005     0.38100
H688        H  0.74934932  0.81227956  0.09351622     0.32600
H689        H  0.76306252  0.67081072  0.08782424     0.31400
H690        H  0.74309139  0.59674051  0.14462657     0.33100
H691        H  0.76717323  0.58083993  0.29514245     0.32100
H692        H  0.86171334  0.85717433  0.18218803     0.36100
H693        H  0.91448064  0.76795710  0.19732953     0.28800
H694        H  0.55069450  0.77208458  0.25081765     0.33000
H695        H  0.67128578  0.61424944  0.36133337     0.35900
H696        H  0.72995250  0.71640625  0.08890789     0.28500
H697        H  0.92057491  0.80533292  0.23612069     0.41400
H698        H  0.78076886  0.91369624  0.30413121     0.31400
H699        H  0.73152432  0.92208042  0.22253291     0.39000
H700        H  0.71846308  0.58880405  0.26828623     0.30900
H701        H  0.71744916  0.79240455  0.40970056     0.31000
H702        H  0.57073724  0.73853216  0.28981412     0.31200
C703        C  0.93109080  0.59530195  0.91808724     0.86700
C704        C  0.94186597  0.54128850  0.91189940    -0.53500
C705        C  0.98760584  0.52824715  0.92614271     0.09600
C706        C  0.01828164  0.56995039  0.94501451     0.20600
C707        C  0.94080237  0.60343058  0.96883935    -0.54300
C708        C  0.98608023  0.58924364  0.98310960     0.09700
C709        C  0.97235002  0.62151703  0.89387436    -0.53800
C710        C  0.01787586  0.60848855  0.90713799     0.10300
H711        H  0.91538443  0.51562031  0.89914981     0.14800
H712        H  0.05508234  0.55881627  0.95660024     0.00500
H713        H  0.91349287  0.61646678  0.99187537     0.15100
H714        H  0.96587210  0.64727063  0.86662509     0.14900
C715        C  0.04395647  0.60281602  0.10080368     0.86700
C716        C  0.04018751  0.54955755  0.11263812    -0.53500
C717        C  0.99969344  0.52697121  0.09589553     0.09600
C718        C  0.96645471  0.56151507  0.06792988     0.20600
C719        C  0.04099985  0.60519614  0.04902244    -0.54300
C720        C  0.99962452  0.58485405  0.03165709     0.09700
C721        C  0.99702148  0.62534321  0.11607647    -0.53800
C722        C  0.95636160  0.60274652  0.10074626     0.10300
H723        H  0.06870357  0.53166105  0.13184027     0.14800
H724        H  0.93302126  0.54463367  0.05402648     0.00500
H725        H  0.06742185  0.62371669  0.02827575     0.15100
H726        H  0.99617700  0.65628539  0.13839698     0.14900
C727        C  0.05677479  0.40871270  0.92141414     0.86700
C728        C  0.04633565  0.46205324  0.91154715    -0.53500
C729        C  0.00407266  0.47784422  0.92996818     0.09600
C730        C  0.97680181  0.43922178  0.95738989     0.20600
C731        C  0.05653987  0.40450134  0.97276716    -0.54300
C732        C  0.01473640  0.42003247  0.99239248     0.09700
C733        C  0.01133046  0.38173074  0.90558980    -0.53800
C734        C  0.96934476  0.39820011  0.92357174     0.10300
H735        H  0.06994883  0.48506988  0.89178605     0.14800
H736        H  0.94237265  0.45230996  0.97167007     0.00500
H737        H  0.08761627  0.39066940  0.99141174     0.15100
H738        H  0.01209748  0.35303080  0.88077383     0.14900
C739        C  0.02465401  0.39454706  0.12133346     0.86700
C740        C  0.03816275  0.39301507  0.07111851    -0.53500
C741        C  0.00775077  0.41771285  0.04242738     0.09600
C742        C  0.96617638  0.44190396  0.06754389     0.20600
C743        C  0.02023822  0.44793148  0.13225083    -0.54300
C744        C  0.99188407  0.47388487  0.10271392     0.09700
C745        C  0.97217899  0.37488069  0.12205230    -0.53800
C746        C  0.94130352  0.39955691  0.09312209     0.10300
H747        H  0.06933874  0.37286989  0.05996106     0.14800
H748        H  0.94081355  0.46243528  0.04552377     0.00500
H749        H  0.04215628  0.46412150  0.15885418     0.15100
H750        H  0.96267479  0.34064487  0.13732601     0.14900
Zr751      Zr  0.35655372  0.25286552  0.23377452     2.17500
O752        O  0.43244276  0.29434239  0.25136281    -0.51100
O753        O  0.39163239  0.20836123  0.17190283    -0.74300
O754        O  0.41193108  0.20375377  0.28192271    -0.81100
O755        O  0.30764196  0.36187677  0.16517359    -0.82900
O756        O  0.36774377  0.15640196  0.32904497    -0.78500
O757        O  0.37694352  0.32229835  0.18570260    -0.90100
O758        O  0.33328128  0.15775699  0.14529435    -0.76100
O759        O  0.31817107  0.17607926  0.23860508    -0.85600
O760        O  0.29519239  0.25162671  0.17568040    -0.85300
O761        O  0.32335399  0.24880345  0.30857606    -0.72000
O762        O  0.30215373  0.31816775  0.24891266    -0.84200
Zr763      Zr  0.16766606  0.23486117  0.27010242     2.26400
Zr764      Zr  0.28290491  0.17234315  0.31215033     2.06300
Zr765      Zr  0.23952961  0.31517677  0.19157503     2.10000
Zr766      Zr  0.25709816  0.17524472  0.18103210     1.78800
O767        O  0.22109867  0.40060105  0.19657055    -0.93000
O768        O  0.26591666  0.08817051  0.18609630    -0.40800
O769        O  0.20057645  0.23868652  0.19532183    -0.77400
O770        O  0.22150395  0.16921049  0.25410864    -0.96100
O771        O  0.22837045  0.23647055  0.32843886    -0.89400
O772        O  0.20620975  0.31131322  0.26503848    -0.92200
C773        C  0.37638603  0.17497582  0.14560831     1.01500
C774        C  0.35387269  0.35696183  0.16583818     1.14400
C775        C  0.40823384  0.17204483  0.31388407     1.05200
O776        O  0.29489471  0.08578250  0.30671774    -0.94400
O777        O  0.21309403  0.12924823  0.34074501    -0.90100
O778        O  0.14501368  0.17223329  0.32352706    -0.83300
C779        C  0.16722800  0.13663353  0.34218433     1.11900
O780        O  0.33655320  0.35229604  0.35818808    -0.96400
Zr781      Zr  0.26746730  0.31248207  0.32238869     1.88900
O782        O  0.13229182  0.28394639  0.32889060    -0.73000
O783        O  0.29255811  0.17213110  0.39427158    -0.52300
O784        O  0.27580389  0.29598628  0.40327294    -0.97000
O785        O  0.26686459  0.39983818  0.31523826    -0.54200
O786        O  0.19089439  0.33575087  0.35304245    -0.73500
C787        C  0.14743123  0.31970589  0.35242914     0.98800
O788        O  0.09555295  0.19099244  0.24452980    -0.62400
O789        O  0.22976337  0.31277443  0.10957518    -0.57200
O790        O  0.10875794  0.28174749  0.22628239    -0.93800
O791        O  0.15253318  0.32862742  0.17853304    -0.92300
O792        O  0.24163870  0.18961836  0.10069140    -0.92600
O793        O  0.18597290  0.13245472  0.15266089    -0.91400
C794        C  0.11201236  0.31329991  0.19457983     1.17700
H795        H  0.30900489  0.25631074  0.14609973     0.33600
H796        H  0.20412607  0.13909220  0.25530621     0.44500
H797        H  0.18348757  0.33742869  0.26817051     0.38000
H798        H  0.34882268  0.25053350  0.33121964     0.34500
H799        H  0.28297056  0.07885531  0.15819124     0.26200
H800        H  0.26065848  0.18226754  0.40581074     0.32200
H801        H  0.24407461  0.28269202  0.41241890     0.38100
H802        H  0.24842636  0.15846220  0.08600956     0.32600
H803        H  0.20544893  0.28715573  0.10417088     0.31400
H804        H  0.21598128  0.41123470  0.16480107     0.33100
H805        H  0.23327851  0.40808564  0.30591394     0.32100
H806        H  0.15919657  0.14349864  0.17197336     0.36100
H807        H  0.09441596  0.19499063  0.21117395     0.28800
H808        H  0.45859344  0.27188690  0.24292221     0.33000
H809        H  0.35996563  0.35705734  0.33343872     0.35900
H810        H  0.21256646  0.34295586  0.10166685     0.28500
H811        H  0.10336031  0.15652697  0.24878323     0.41400
H812        H  0.32527227  0.08181360  0.28969051     0.31400
H813        H  0.29003477  0.08285004  0.21071167     0.39000
H814        H  0.28642619  0.40688628  0.28812907     0.30900
H815        H  0.29498419  0.13766687  0.40260915     0.31000
H816        H  0.43410688  0.29602842  0.28484304     0.31200
C817        C  0.06623050  0.37224488  0.14848159    -0.16200
C818        C  0.06578846  0.33276433  0.17487969    -0.31400
H819        H  0.10084349  0.39024000  0.14367043     0.12800
H820        H  0.03194421  0.31430277  0.18156705     0.13400
C821        C  0.90697373  0.62905124  0.16231165    -0.16200
C822        C  0.90873285  0.61570871  0.11874576    -0.31400
H823        H  0.93847153  0.62383635  0.18436135     0.12800
H824        H  0.87752914  0.61870734  0.09610833     0.13400
C825        C  0.14629465  0.05397464  0.36290131    -0.16200
C826        C  0.13775347  0.10132686  0.36659534    -0.31400
H827        H  0.17493455  0.04165666  0.34086223     0.12800
H828        H  0.10735599  0.11402399  0.38621185     0.13400
C829        C  0.91190288  0.85290164  0.36715727    -0.16200
C830        C  0.90330313  0.87784814  0.40481095    -0.31400
H831        H  0.94241345  0.86318354  0.34624261     0.12800
H832        H  0.87307791  0.86744326  0.42595844     0.13400
C833        C  0.10137290  0.87037505  0.62965247    -0.16200
C834        C  0.11372089  0.88801941  0.58921762    -0.31400
H835        H  0.07046482  0.88650851  0.64633177     0.12800
H836        H  0.14560017  0.87404183  0.57263831     0.13400
C837        C  0.10452949  0.63665462  0.89602492    -0.16200
C838        C  0.05985024  0.62559230  0.87997062    -0.31400
H839        H  0.11281173  0.63244535  0.93189039     0.12800
H840        H  0.05149215  0.63399676  0.84470545     0.13400
C841        C  0.40378100  0.11351974  0.09315321    -0.16200
C842        C  0.40920888  0.15755460  0.11064251    -0.31400
H843        H  0.38132327  0.08691191  0.10996403     0.12800
H844        H  0.43256884  0.18361841  0.09412800     0.13400
C845        C  0.37675960  0.88355137  0.93540504    -0.16200
C846        C  0.33978028  0.85154328  0.93435496    -0.31400
H847        H  0.39159217  0.89674315  0.90380114     0.12800
H848        H  0.32434680  0.83842903  0.96554406     0.13400
C849        C  0.63377668  0.89808906  0.08017970    -0.16200
C850        C  0.61317368  0.87436012  0.11493989    -0.31400
H851        H  0.67273994  0.90378025  0.08044751     0.12800
H852        H  0.57476262  0.86582287  0.11340466     0.13400
C853        C  0.91509714  0.37828832  0.86135369    -0.16200
C854        C  0.92165250  0.38161910  0.90635056    -0.31400
H855        H  0.94309682  0.39243320  0.83929911     0.12800
H856        H  0.89401806  0.37002419  0.92986682     0.13400
C857        C  0.67342265  0.17825991  0.93606119    -0.16200
C858        C  0.64354267  0.14000094  0.93128505    -0.31400
H859        H  0.68260367  0.19351880  0.96868166     0.12800
H860        H  0.63487470  0.12647467  0.89766056     0.13400
C861        C  0.87387827  0.08128002  0.60276430    -0.16200
C862        C  0.87330379  0.08627143  0.64768135    -0.31400
H863        H  0.85349617  0.10589831  0.58109497     0.12800
H864        H  0.89447147  0.06127759  0.66839954     0.13400
C865        C  0.90079910  0.37611636  0.06785165    -0.16200
C866        C  0.86351992  0.34740506  0.07960607    -0.31400
H867        H  0.90166391  0.38409718  0.03172095     0.12800
H868        H  0.84135916  0.33655958  0.05057024     0.13400
C869        C  0.60860789  0.11753903  0.09602465    -0.16200
C870        C  0.61248101  0.16513904  0.10421737    -0.31400
H871        H  0.61852144  0.09108525  0.12168656     0.12800
H872        H  0.60288492  0.19032544  0.07722650     0.13400
C873        C  0.87739951  0.09364501  0.35901883    -0.16200
C874        C  0.87309208  0.04611650  0.35285643    -0.31400
H875        H  0.89869294  0.10728722  0.38742664     0.12800
H876        H  0.84968414  0.03213126  0.32609203     0.13400
C877        C  0.11977598  0.84578098  0.39748072    -0.16200
C878        C  0.09690665  0.88329078  0.37846995    -0.31400
H879        H  0.13180214  0.84927127  0.43254510     0.12800
H880        H  0.08994971  0.88224010  0.34211799     0.13400
C881        C  0.39748479  0.88851873  0.10523813    -0.16200
C882        C  0.35092192  0.89142688  0.11713751    -0.31400
H883        H  0.42286344  0.86708094  0.12525866     0.12800
H884        H  0.32626455  0.91332612  0.09670723     0.13400
C885        C  0.08663250  0.62626211  0.12355200    -0.16200
C886        C  0.08779826  0.63039598  0.16915524    -0.31400
H887        H  0.11529595  0.64136150  0.10295124     0.12800
H888        H  0.05779271  0.61732263  0.18932255     0.13400
C889        C  0.37216225  0.13048825  0.92467883    -0.16200
C890        C  0.34071276  0.16796487  0.92680047    -0.31400
H891        H  0.38059847  0.11576422  0.89170565     0.12800
H892        H  0.33102936  0.18371588  0.95879854     0.13400
C893        C  0.10520272  0.38565650  0.85557555    -0.16200
C894        C  0.10196579  0.38849363  0.90060506    -0.31400
H895        H  0.07749341  0.40303842  0.83465674     0.12800
H896        H  0.12912769  0.37128714  0.92217483     0.13400
C897        C  0.14205584  0.05994497  0.62135756    -0.16200
C898        C  0.16829169  0.09809720  0.60774318    -0.31400
H899        H  0.13587763  0.05499307  0.65739346     0.12800
H900        H  0.17569745  0.10436022  0.57229588     0.13400
C901        C  0.59683192  0.11889341  0.61050026    -0.16200
C902        C  0.60254970  0.13683394  0.65256721    -0.31400
H903        H  0.62787309  0.11389485  0.58884966     0.12800
H904        H  0.57084322  0.13706943  0.67404620     0.13400
C905        C  0.40480503  0.14485597  0.64008838    -0.16200
C906        C  0.41658600  0.14830295  0.59606881    -0.31400
H907        H  0.42798887  0.12320842  0.66226144     0.12800
H908        H  0.39503118  0.16966062  0.57241913     0.13400
C909        C  0.41795985  0.88116489  0.64122359    -0.16200
C910        C  0.37049067  0.87498457  0.63052966    -0.31400
H911        H  0.43080989  0.86634555  0.67334976     0.12800
H912        H  0.35690348  0.88661610  0.59756794     0.13400
C913        C  0.45383920  0.15282317  0.33500388    -0.16200
C914        C  0.45392901  0.12102027  0.37012506    -0.31400
H915        H  0.48776134  0.16595415  0.32155416     0.12800
H916        H  0.41946419  0.10878415  0.38328363     0.13400
C917        C  0.65781344  0.13582337  0.39897683    -0.16200
C918        C  0.63393262  0.09446213  0.39131493    -0.31400
H919        H  0.64953039  0.15765427  0.42820858     0.12800
H920        H  0.64311373  0.07425899  0.36117268     0.13400
C921        C  0.58721096  0.87778008  0.39764349    -0.16200
C922        C  0.58884555  0.86745845  0.35281521    -0.31400
H923        H  0.61909762  0.87397966  0.41928432     0.12800
H924        H  0.55705782  0.87367753  0.33148874     0.13400
C925        C  0.41254728  0.88090833  0.33901763    -0.16200
C926        C  0.41011666  0.88798132  0.38416101    -0.31400
H927        H  0.44493809  0.89049595  0.32045561     0.12800
H928        H  0.37874348  0.87584771  0.40298221     0.13400
C929        C  0.59299928  0.64212718  0.13831592    -0.16200
C930        C  0.60298429  0.62014814  0.09887978    -0.31400
H931        H  0.56519138  0.62716199  0.15999327     0.12800
H932        H  0.63055142  0.63534802  0.07709316     0.13400
C933        C  0.64115933  0.44938696  0.13978344    -0.16200
C934        C  0.64120775  0.40205456  0.13086179    -0.31400
H935        H  0.66273623  0.46318311  0.16793106     0.12800
H936        H  0.62195535  0.38854701  0.10119767     0.13400
C937        C  0.62907949  0.42268287  0.88251377    -0.16200
C938        C  0.67656474  0.41284108  0.88274504    -0.31400
H939        H  0.60553725  0.40123763  0.86072570     0.12800
H940        H  0.70079807  0.43162179  0.90594078     0.13400
C941        C  0.36865750  0.44002741  0.13916137    -0.16200
C942        C  0.38238647  0.39348921  0.14116374    -0.31400
H943        H  0.33706701  0.45131469  0.15794107     0.12800
H944        H  0.41540471  0.38213306  0.12474717     0.13400
C945        C  0.38661603  0.61384623  0.09866549    -0.16200
C946        C  0.40095029  0.64394315  0.13203466    -0.31400
H947        H  0.35180757  0.62024292  0.08208652     0.12800
H948        H  0.43537000  0.63756813  0.14933932     0.13400
C949        C  0.39685999  0.60833923  0.90523471    -0.16200
C950        C  0.35210565  0.62626209  0.91047165    -0.31400
H951        H  0.42072206  0.62386228  0.88008879     0.12800
H952        H  0.32890128  0.61050737  0.93610193     0.13400
C953        C  0.33572155  0.40060693  0.89253812    -0.16200
C954        C  0.36493255  0.43654771  0.87880390    -0.31400
H955        H  0.32776225  0.39505738  0.92797485     0.12800
H956        H  0.37156137  0.44089735  0.84278632     0.13400
C957        C  0.12378748  0.61724387  0.58943269    -0.16200
C958        C  0.13160303  0.66468259  0.59598947    -0.31400
H959        H  0.13710573  0.59190806  0.61482816     0.12800
H960        H  0.12123292  0.68991723  0.56938718     0.13400
C961        C  0.15448086  0.61483647  0.40596648    -0.16200
C962        C  0.10777547  0.61690200  0.41806376    -0.31400
H963        H  0.18015810  0.59714109  0.42881719     0.12800
H964        H  0.08042152  0.63240645  0.39561963     0.13400
C965        C  0.88382034  0.59121951  0.39973414    -0.16200
C966        C  0.89187408  0.63403647  0.37991408    -0.31400
H967        H  0.85535711  0.56809968  0.38634035     0.12800
H968        H  0.92033335  0.65699876  0.39368628     0.13400
C969        C  0.12007277  0.38912607  0.39521512    -0.16200
C970        C  0.11361674  0.34300998  0.38289591    -0.31400
H971        H  0.14516911  0.41206048  0.37694928     0.12800
H972        H  0.08737084  0.32041857  0.40005246     0.13400
C973        C  0.15818575  0.33778544  0.56787789    -0.16200
C974        C  0.12618205  0.37435061  0.56485861    -0.31400
H975        H  0.17253013  0.32157437  0.53766411     0.12800
H976        H  0.11182115  0.38979139  0.59558572     0.13400
C977        C  0.88851102  0.35498604  0.57572840    -0.16200
C978        C  0.85620261  0.31844401  0.57598071    -0.31400
H979        H  0.90290361  0.36807003  0.60783555     0.12800
H980        H  0.84064229  0.30461040  0.54486382     0.13400
C981        C  0.89591292  0.38024367  0.40429941    -0.16200
C982        C  0.89866554  0.33420489  0.39151866    -0.31400
H983        H  0.88168899  0.40767408  0.38145082     0.12800
H984        H  0.91255148  0.30795174  0.41586666     0.13400
C985        C  0.84344100  0.66500611  0.56521043    -0.16200
C986        C  0.85153749  0.61773562  0.56313345    -0.31400
H987        H  0.85597717  0.68908403  0.53872012     0.12800
H988        H  0.83599859  0.59439933  0.58885834     0.13400
C989        C  0.60568268  0.61319101  0.85843751    -0.16200
C990        C  0.61502834  0.59982548  0.90127757    -0.31400
H991        H  0.57856561  0.59288001  0.83936774     0.12800
H992        H  0.64251455  0.61824879  0.92132947     0.13400
C993        C  0.62247973  0.88297375  0.60752691    -0.16200
C994        C  0.59252381  0.91649657  0.62321284    -0.31400
H995        H  0.61588275  0.86819371  0.57397271     0.12800
H996        H  0.59815874  0.92987942  0.65739885     0.13400
C997        C  0.64854954  0.83679629  0.90863584    -0.16200
C998        C  0.62105966  0.87695545  0.90997261    -0.31400
H999        H  0.65804808  0.81779078  0.93952993     0.12800
H1000       H  0.60997903  0.89387822  0.87822327     0.13400
C1001       C  0.84558271  0.89359157  0.60790332    -0.16200
C1002       C  0.89244345  0.90372641  0.60055978    -0.31400
H1003       H  0.81783149  0.91708681  0.59350263     0.12800
H1004       H  0.92094642  0.87916632  0.61129397     0.13400
C1005       C  0.88171693  0.61282657  0.90037864    -0.16200
C1006       C  0.87100159  0.60969301  0.85579200    -0.31400
H1007       H  0.85818611  0.63293725  0.92252997     0.12800
H1008       H  0.89586942  0.58932763  0.83502808     0.13400
loop_ 
_geom_bond_atom_site_label_1 
_geom_bond_atom_site_label_2 
_geom_bond_distance 
_geom_bond_site_symmetry_2 
_ccdc_geom_bond_type 
Zr1           O2   2.438       .  S
Zr1           O3   2.397       .  S
Zr1           O4   2.416       .  S
Zr1           O7   2.413       .  S
Zr1           O9   2.380       .  S
Zr1          O10   2.381       .  S
Zr1          O11   2.394       .  S
Zr1          O12   2.397       .  S
O2           H58   0.990       .  S
O2           H66   0.990       .  S
O3           C23   1.276       .  A
O4           C25   1.280       .  A
O5          Zr15   2.420       .  S
O5           C24   1.284       .  A
O6          Zr14   2.448       .  S
O6           C25   1.290       .  A
O7           C24   1.279       .  A
O8          Zr16   2.454       .  S
O8           C23   1.287       .  A
O9          Zr14   2.385       .  S
O9          Zr16   2.372       .  S
O10         Zr15   2.385       .  S
O10         Zr16   2.363       .  S
O10          H45   0.966       .  S
O11         Zr14   2.393       .  S
O11         Zr31   2.379       .  S
O11          H48   0.966       .  S
O12         Zr15   2.386       .  S
O12         Zr31   2.392       .  S
Zr13         O38   2.438       .  S
Zr13         O32   2.460       .  S
Zr13         O40   2.485       .  S
Zr13         O28   2.454       .  S
Zr13         O19   2.405       .  S
Zr13         O20   2.422       .  S
Zr13         O21   2.383       .  S
Zr13         O22   2.387       .  S
Zr14         O33   2.437       .  S
Zr14         O26   2.434       .  S
Zr14         O27   2.433       .  S
Zr14         O20   2.407       .  S
Zr14         O21   2.392       .  S
Zr15         O17   2.436       .  S
Zr15         O39   2.439       .  S
Zr15         O41   2.410       .  S
Zr15         O19   2.389       .  S
Zr15         O22   2.390       .  S
Zr16         O42   2.436       .  S
Zr16         O43   2.437       .  S
Zr16         O18   2.436       .  S
Zr16         O19   2.400       .  S
Zr16         O20   2.406       .  S
O17          H54   0.990       .  S
O18          H49   0.990       .  S
O18          H63   0.990       .  S
O20          H46   0.966       .  S
O21         Zr31   2.377       .  S
O22         Zr31   2.387       .  S
O22          H47   0.966       .  S
C23        C1001   1.464       .  S
C24         C985   1.463       .  S
C25         C993   1.477       .  S
O26          H62   0.990       .  S
O27          C29   1.285       .  A
O28          C29   1.288       .  A
C29         C997   1.485       .  S
O30         Zr31   2.441       .  S
O30          H59   0.990       .  S
Zr31         O34   2.437       .  S
Zr31         O35   2.439       .  S
Zr31         O36   2.395       .  S
O32          C37   1.289       .  A
O33          H50   0.990       .  S
O33          H65   0.990       .  S
O34          H51   0.990       .  S
O35          H55   0.990       .  S
O35          H64   0.990       .  S
O36          C37   1.276       .  A
C37         C989   1.473       .  S
O38          H57   0.990       .  S
O38          H61   0.990       .  S
O39          H53   0.990       .  S
O39          H60   0.990       .  S
O40          C44   1.293       .  A
O41          C44   1.280       .  A
O42          H52   0.990       .  S
O43          H56   0.990       .  S
C44        C1006   1.490       .  S
C67          C68   1.529       .  S
C67          C73   1.537       .  S
C67          C71   1.529       .  S
C67         C977   1.516       .  S
C68          H75   1.087       .  S
C68          C69   1.359       .  D
C69          C70   1.533       .  S
C69          C81   1.453   1_655  S
C70          C74   1.532       .  S
C70          C72   1.537       .  S
C70          H76   1.108       .  S
C71          H77   1.082       .  S
C71          C72   1.377       .  D
C72          C93   1.498       .  S
C73          H78   1.083       .  S
C73          C74   1.369       .  D
C74         C981   1.482       .  S
C79          C80   1.525       .  S
C79          C85   1.532       .  S
C79          C83   1.536       .  S
C79         C969   1.498       .  S
C80          H87   1.087       .  S
C80          C81   1.357       .  D
C81          C82   1.534       .  S
C82          C86   1.539       .  S
C82          C84   1.538       .  S
C82          H88   1.111       .  S
C83          H89   1.086       .  S
C83          C84   1.368       .  D
C84         C108   1.474       .  S
C85          H90   1.083       .  S
C85          C86   1.366       .  D
C86         C974   1.491       .  S
C91          C92   1.520       .  S
C91          C97   1.516       .  S
C91          C95   1.527       .  S
C91         C986   1.496       .  S
C92          H99   1.082       .  S
C92          C93   1.363       .  D
C93          C94   1.557       .  S
C94          C98   1.559       .  S
C94          C96   1.563       .  S
C94         H100   1.104       .  S
C95         H101   1.083       .  S
C95          C96   1.372       .  D
C96         C105   1.513   1_655  S
C97         H102   1.087       .  S
C97          C98   1.360       .  D
C98         C965   1.480       .  S
C103        C104   1.535       .  S
C103        C109   1.535       .  S
C103        C107   1.537       .  S
C103        C957   1.532       .  S
C104        H111   1.082       .  S
C104        C105   1.380       .  D
C105        C106   1.548       .  S
C106        C110   1.537       .  S
C106        C108   1.542       .  S
C106        H112   1.109       .  S
C107        H113   1.086       .  S
C107        C108   1.364       .  D
C109        H114   1.086       .  S
C109        C110   1.367       .  D
C110        C962   1.482       .  S
C115        C116   1.520       .  S
C115        C121   1.513       .  S
C115        C119   1.531       .  S
C115        C954   1.512       .  S
C116        H123   1.080       .  S
C116        C117   1.374       .  D
C117        C118   1.551       .  S
C117        C144   1.506       .  S
C118        C122   1.549       .  S
C118        C120   1.560       .  S
C118        H124   1.105       .  S
C119        H125   1.077       .  S
C119        C120   1.377       .  D
C120        C129   1.507   1_556  S
C121        H126   1.088       .  S
C121        C122   1.359       .  D
C122        C949   1.474       .  S
C127        C128   1.528       .  S
C127        C133   1.526       .  S
C127        C131   1.523       .  S
C127        C941   1.519       .  S
C128        H135   1.082       .  S
C128        C129   1.376       .  D
C129        C130   1.551       .  S
C130        C134   1.554       .  S
C130        C132   1.555       .  S
C130        H136   1.103       .  S
C131        H137   1.081       .  S
C131        C132   1.372       .  D
C132        C153   1.502       .  S
C133        H138   1.087       .  S
C133        C134   1.363       .  D
C134        C945   1.486       .  S
C139        C140   1.535       .  S
C139        C145   1.516       .  S
C139        C143   1.518       .  S
C139        C937   1.519       .  S
C140        H147   1.082       .  S
C140        C141   1.386       .  D
C141        C142   1.548       .  S
C141        C156   1.506   1_556  S
C142        C146   1.547       .  S
C142        C144   1.555       .  S
C142        H148   1.105       .  S
C143        H149   1.079       .  S
C143        C144   1.369       .  D
C145        H150   1.087       .  S
C145        C146   1.362       .  D
C146        C990   1.475       .  S
C151        C152   1.525       .  S
C151        C157   1.522       .  S
C151        C155   1.526       .  S
C151        C933   1.509       .  S
C152        H159   1.081       .  S
C152        C153   1.374       .  D
C153        C154   1.550       .  S
C154        C158   1.549       .  S
C154        C156   1.562       .  S
C154        H160   1.103       .  S
C155        H161   1.083       .  S
C155        C156   1.366       .  D
C157        H162   1.087       .  S
C157        C158   1.364       .  D
C158        C930   1.478       .  S
C163        C164   1.522       .  S
C163        C169   1.517       .  S
C163        C167   1.528       .  S
C163        C926   1.492       .  S
C164        H171   1.083       .  S
C164        C165   1.374       .  D
C165        C166   1.569       .  S
C165        C192   1.508       .  S
C166        C170   1.551       .  S
C166        C168   1.547       .  S
C166        H172   1.109       .  S
C167        H173   1.087       .  S
C167        C168   1.359       .  D
C168        C180   1.471   1_565  S
C169        H174   1.087       .  S
C169        C170   1.356       .  D
C170        C921   1.494       .  S
C175        C176   1.540       .  S
C175        C181   1.541       .  S
C175        C179   1.532       .  S
C175        C918   1.507       .  S
C176        H183   1.086       .  S
C176        C177   1.369       .  D
C177        C178   1.538       .  S
C177        C201   1.476       .  S
C178        C182   1.545       .  S
C178        C180   1.539       .  S
C178        H184   1.111       .  S
C179        H185   1.087       .  S
C179        C180   1.359       .  D
C181        H186   1.084       .  S
C181        C182   1.366       .  D
C182        C914   1.502       .  S
C187        C188   1.536       .  S
C187        C193   1.523       .  S
C187        C191   1.533       .  S
C187        C909   1.535       .  S
C188        H195   1.083       .  S
C188        C189   1.385       .  D
C189        C190   1.541       .  S
C189        C204   1.505   1_565  S
C190        C194   1.542       .  S
C190        C192   1.550       .  S
C190        H196   1.106       .  S
C191        H197   1.084       .  S
C191        C192   1.381       .  D
C193        H198   1.088       .  S
C193        C194   1.358       .  D
C194        C994   1.469       .  S
C199        C200   1.534       .  S
C199        C205   1.534       .  S
C199        C203   1.524       .  S
C199        C906   1.518       .  S
C200        H207   1.086       .  S
C200        C201   1.370       .  D
C201        C202   1.546       .  S
C202        C206   1.548       .  S
C202        C204   1.564       .  S
C202        H208   1.108       .  S
C203        H209   1.083       .  S
C203        C204   1.361       .  D
C205        H210   1.086       .  S
C205        C206   1.369       .  D
C206        C901   1.505       .  S
Zr211       O212   2.440       .  S
Zr211       O213   2.436       .  S
Zr211       O214   2.459       .  S
Zr211       O217   2.438       .  S
Zr211       O219   2.383       .  S
Zr211       O220   2.387       .  S
Zr211       O221   2.406       .  S
Zr211       O222   2.403       .  S
O212        H268   0.990       .  S
O212        H276   0.990       .  S
O213        C233   1.283       .  A
O214        C235   1.287       .  A
O215       Zr225   2.418       .  S
O215        C234   1.282       .  A
O216       Zr224   2.407       .  S
O216        C235   1.280       .  A
O217        C234   1.286       .  A
O218       Zr226   2.419       .  S
O218        C233   1.283       .  A
O219       Zr224   2.384       .  S
O219       Zr226   2.378       .  S
O220       Zr225   2.383       .  S
O220       Zr226   2.374       .  S
O220        H255   0.966       .  S
O221       Zr224   2.398       .  S
O221       Zr241   2.387       .  S
O221        H258   0.965       .  S
O222       Zr225   2.389       .  S
O222       Zr241   2.394       .  S
Zr223       O248   2.442       .  S
Zr223       O242   2.433       .  S
Zr223       O250   2.461       .  S
Zr223       O238   2.475       .  S
Zr223       O229   2.412       .  S
Zr223       O230   2.404       .  S
Zr223       O231   2.382       .  S
Zr223       O232   2.388       .  S
Zr224       O243   2.436       .  S
Zr224       O236   2.437       .  S
Zr224       O237   2.406       .  S
Zr224       O230   2.390       .  S
Zr224       O231   2.390       .  S
Zr225       O227   2.435       .  S
Zr225       O249   2.438       .  S
Zr225       O251   2.396       .  S
Zr225       O229   2.392       .  S
Zr225       O232   2.387       .  S
Zr226       O252   2.436       .  S
Zr226       O253   2.437       .  S
Zr226       O228   2.436       .  S
Zr226       O229   2.399       .  S
Zr226       O230   2.389       .  S
O227        H264   0.990       .  S
O228        H259   0.990       .  S
O228        H273   0.990       .  S
O230        H256   0.966       .  S
O231       Zr241   2.377       .  S
O232       Zr241   2.361       .  S
O232        H257   0.965       .  S
C233        C898   1.480       .  S
C234        C973   1.475       .  S
C235        C905   1.470       .  S
O236        H272   0.990       .  S
O237        C239   1.280       .  A
O238        C239   1.293       .  A
C239        C890   1.487       .  S
O240       Zr241   2.434       .  S
O240        H269   0.990       .  S
Zr241       O244   2.434       .  S
Zr241       O245   2.440       .  S
Zr241       O246   2.419       .  S
O242        C247   1.283       .  A
O243        H260   0.990       .  S
O243        H275   0.990       .  S
O244        H261   0.990       .  S
O245        H265   0.990       .  S
O245        H274   0.990       .  S
O246        C247   1.283       .  A
C247        C953   1.480       .  S
O248        H267   0.990       .  S
O248        H271   0.990       .  S
O249        H263   0.990       .  S
O249        H270   0.990       .  S
O250        C254   1.291       .  A
O251        C254   1.277       .  A
O252        H262   0.990       .  S
O253        H266   0.990       .  S
C254        C893   1.469       .  S
Zr277       O278   2.440       .  S
Zr277       O279   2.444       .  S
Zr277       O280   2.452       .  S
Zr277       O283   2.485       .  S
Zr277       O285   2.397       .  S
Zr277       O286   2.378       .  S
Zr277       O287   2.419       .  S
Zr277       O288   2.399       .  S
O278        H334   0.990       .  S
O278        H342   0.990       .  S
O279        C299   1.286       .  A
O280        C301   1.288       .  A
O281       Zr291   2.393       .  S
O281        C300   1.273       .  A
O282       Zr290   2.380       .  S
O282        C301   1.275       .  A
O283        C300   1.293       .  A
O284       Zr292   2.429       .  S
O284        C299   1.283       .  A
O285       Zr290   2.402       .  S
O285       Zr292   2.377       .  S
O286       Zr291   2.367       .  S
O286       Zr292   2.368       .  S
O286        H321   0.965       .  S
O287       Zr290   2.408       .  S
O287       Zr307   2.381       .  S
O287        H324   0.965       .  S
O288       Zr291   2.382       .  S
O288       Zr307   2.398       .  S
Zr289       O314   2.439       .  S
Zr289       O308   2.437       .  S
Zr289       O316   2.460       .  S
Zr289       O304   2.474       .  S
Zr289       O295   2.414       .  S
Zr289       O296   2.408       .  S
Zr289       O297   2.383       .  S
Zr289       O298   2.385       .  S
Zr290       O309   2.438       .  S
Zr290       O302   2.437       .  S
Zr290       O303   2.430       .  S
Zr290       O296   2.382       .  S
Zr290       O297   2.383       .  S
Zr291       O293   2.435       .  S
Zr291       O315   2.438       .  S
Zr291       O317   2.355       .  S
Zr291       O295   2.393       .  S
Zr291       O298   2.385       .  S
Zr292       O318   2.436       .  S
Zr292       O319   2.436       .  S
Zr292       O294   2.439       .  S
Zr292       O295   2.403       .  S
Zr292       O296   2.382       .  S
O293        H330   0.990       .  S
O294        H325   0.990       .  S
O294        H339   0.990       .  S
O296        H322   0.964       .  S
O297       Zr307   2.385       .  S
O298       Zr307   2.369       .  S
O298        H323   0.965       .  S
C299        C961   1.477       .  S
C300        C877   1.477       .  S
C301        C886   1.457       .  S
O302        H338   0.990       .  S
O303        C305   1.284       .  A
O304        C305   1.292       .  A
C305        C946   1.492       .  S
O306       Zr307   2.438       .  S
O306        H335   0.990       .  S
Zr307       O310   2.438       .  S
Zr307       O311   2.442       .  S
Zr307       O312   2.404       .  S
O308        C313   1.285       .  A
O309        H326   0.991       .  S
O309        H341   0.990       .  S
O310        H327   0.990       .  S
O311        H331   0.990       .  S
O311        H340   0.990       .  S
O312        C313   1.277       .  A
C313        C882   1.467       .  S
O314        H333   0.990       .  S
O314        H337   0.990       .  S
O315        H329   0.990       .  S
O315        H336   0.990       .  S
O316        C320   1.289       .  A
O317        C320   1.271       .  A
O318        H328   0.990       .  S
O319        H332   0.990       .  S
C320        C925   1.457       .  S
Zr343       O344   2.441       .  S
Zr343       O345   2.409       .  S
Zr343       O346   2.445       .  S
Zr343       O349   2.398       .  S
Zr343       O351   2.375       .  S
Zr343       O352   2.391       .  S
Zr343       O353   2.394       .  S
Zr343       O354   2.396       .  S
O344        H400   0.991       .  S
O344        H408   0.990       .  S
O345        C365   1.278       .  A
O346        C367   1.283       .  A
O347       Zr357   2.459       .  S
O347        C366   1.289       .  A
O348       Zr356   2.411       .  S
O348        C367   1.281       .  A
O349        C366   1.278       .  A
O350       Zr358   2.422       .  S
O350        C365   1.281       .  A
O351       Zr356   2.386       .  S
O351       Zr358   2.377       .  S
O352       Zr357   2.401       .  S
O352       Zr358   2.378       .  S
O352        H387   0.965       .  S
O353       Zr356   2.395       .  S
O353       Zr373   2.397       .  S
O353        H390   0.965       .  S
O354       Zr357   2.401       .  S
O354       Zr373   2.387       .  S
Zr355       O380   2.441       .  S
Zr355       O374   2.431       .  S
Zr355       O382   2.418       .  S
Zr355       O370   2.443       .  S
Zr355       O361   2.404       .  S
Zr355       O362   2.398       .  S
Zr355       O363   2.368       .  S
Zr355       O364   2.380       .  S
Zr356       O375   2.436       .  S
Zr356       O368   2.436       .  S
Zr356       O369   2.413       .  S
Zr356       O362   2.399       .  S
Zr356       O363   2.393       .  S
Zr357       O359   2.435       .  S
Zr357       O381   2.436       .  S
Zr357       O383   2.477       .  S
Zr357       O361   2.402       .  S
Zr357       O364   2.398       .  S
Zr358       O384   2.437       .  S
Zr358       O385   2.437       .  S
Zr358       O360   2.435       .  S
Zr358       O361   2.397       .  S
Zr358       O362   2.392       .  S
O359        H396   0.990       .  S
O360        H391   0.990       .  S
O360        H405   0.990       .  S
O362        H388   0.966       .  S
O363       Zr373   2.381       .  S
O364       Zr373   2.377       .  S
O364        H389   0.966       .  S
C365        C873   1.458       .  S
C366        C982   1.465       .  S
C367        C917   1.474       .  S
O368        H404   0.990       .  S
O369        C371   1.278       .  A
O370        C371   1.286       .  A
C371        C870   1.465       .  S
O372       Zr373   2.437       .  S
O372        H401   0.990       .  S
Zr373       O376   2.438       .  S
Zr373       O377   2.439       .  S
Zr373       O378   2.418       .  S
O374        C379   1.282       .  A
O375        H392   0.990       .  S
O375        H407   0.990       .  S
O376        H393   0.990       .  S
O377        H397   0.990       .  S
O377        H406   0.990       .  S
O378        C379   1.281       .  A
C379        C934   1.466       .  S
O380        H399   0.990       .  S
O380        H403   0.991       .  S
O381        H395   0.990       .  S
O381        H402   0.990       .  S
O382        C386   1.284       .  A
O383        C386   1.289       .  A
O384        H394   0.990       .  S
O385        H398   0.990       .  S
C386        C866   1.487       .  S
Zr409       O410   2.440       .  S
Zr409       O411   2.419       .  S
Zr409       O412   2.445       .  S
Zr409       O415   2.440       .  S
Zr409       O417   2.382       .  S
Zr409       O418   2.388       .  S
Zr409       O419   2.402       .  S
Zr409       O420   2.398       .  S
O410        H466   0.990       .  S
O410        H474   0.990       .  S
O411        C431   1.279       .  A
O412        C433   1.285       .  A
O413       Zr423   2.372       .  S
O413        C432   1.275       .  A
O414       Zr422   2.406       .  S
O414        C433   1.280       .  A
O415        C432   1.285       .  A
O416       Zr424   2.454       .  S
O416        C431   1.289       .  A
O417       Zr422   2.388       .  S
O417       Zr424   2.370       .  S
O418       Zr423   2.387       .  S
O418       Zr424   2.363       .  S
O418        H453   0.966       .  S
O419       Zr422   2.397       .  S
O419       Zr439   2.385       .  S
O419        H456   0.966       .  S
O420       Zr423   2.384       .  S
O420       Zr439   2.371       .  S
Zr421       O446   2.440       .  S
Zr421       O440   2.471       .  S
Zr421       O448   2.496       .  S
Zr421       O436   2.460       .  S
Zr421       O427   2.411       .  S
Zr421       O428   2.429       .  S
Zr421       O429   2.389       .  S
Zr421       O430   2.382       .  S
Zr422       O441   2.438       .  S
Zr422       O434   2.433       .  S
Zr422       O435   2.408       .  S
Zr422       O428   2.399       .  S
Zr422       O429   2.386       .  S
Zr423       O425   2.435       .  S
Zr423       O447   2.440       .  S
Zr423       O449   2.395       .  S
Zr423       O427   2.376       .  S
Zr423       O430   2.378       .  S
Zr424       O450   2.435       .  S
Zr424       O451   2.436       .  S
Zr424       O426   2.438       .  S
Zr424       O427   2.407       .  S
Zr424       O428   2.405       .  S
O425        H462   0.990       .  S
O426        H457   0.990       .  S
O426        H471   0.990       .  S
O428        H454   0.965       .  S
O429       Zr439   2.387       .  S
O430       Zr439   2.390       .  S
O430        H455   0.966       .  S
C431        C938   1.479       .  S
C432        C857   1.468       .  S
C433        C853   1.467       .  S
O434        H470   0.990       .  S
O435        C437   1.281       .  A
O436        C437   1.288       .  A
C437        C978   1.480       .  S
O438       Zr439   2.440       .  S
O438        H467   0.990       .  S
Zr439       O442   2.437       .  S
Zr439       O443   2.441       .  S
Zr439       O444   2.372       .  S
O440        C445   1.291       .  A
O441        H458   0.990       .  S
O441        H473   0.990       .  S
O442        H459   0.990       .  S
O443        H463   0.990       .  S
O443        H472   0.990       .  S
O444        C445   1.272       .  A
C445        C862   1.467       .  S
O446        H465   0.991       .  S
O446        H469   0.990       .  S
O447        H461   0.990       .  S
O447        H468   0.990       .  S
O448        C452   1.294       .  A
O449        C452   1.277       .  A
O450        H460   0.990       .  S
O451        H464   0.990       .  S
C452        C902   1.489       .  S
C475        C476   1.534       .  S
C475        C481   1.540       .  S
C475        C479   1.531       .  S
C475        C998   1.530       .  S
C476        H483   1.086       .  S
C476        C477   1.363       .  D
C477        C478   1.544   1_556  S
C477        C501   1.474   1_556  S
C478        C482   1.538       .  S
C478        C480   1.547   1_554  S
C478        H484   1.109       .  S
C479        H485   1.082       .  S
C479        C480   1.379       .  D
C480        C489   1.504   1_565  S
C481        H486   1.083   1_556  S
C481        C482   1.362   1_556  D
C482        C849   1.478       .  S
C487        C488   1.520       .  S
C487        C493   1.510   1_556  S
C487        C491   1.530       .  S
C487        C858   1.497       .  S
C488        H495   1.083       .  S
C488        C489   1.369       .  D
C489        C490   1.559   1_556  S
C490        C494   1.555       .  S
C490        C492   1.551   1_554  S
C490        H496   1.103       .  S
C491        H497   1.083       .  S
C491        C492   1.371       .  D
C492        C513   1.502       .  S
C493        H498   1.083       .  S
C493        C494   1.361       .  D
C494        C869   1.484       .  S
C499        C500   1.526       .  S
C499        C505   1.531       .  S
C499        C503   1.534       .  S
C499        C881   1.505       .  S
C500        H507   1.086       .  S
C500        C501   1.361       .  D
C501        C502   1.548   1_554  S
C502        C506   1.547       .  S
C502        C504   1.543   1_556  S
C502        H508   1.111       .  S
C503        H509   1.086       .  S
C503        C504   1.366       .  D
C504        C516   1.477   1_565  S
C505        H510   1.082       .  S
C505        C506   1.368   1_554  D
C506        C845   1.501       .  S
C511        C512   1.534       .  S
C511        C517   1.534   1_556  S
C511        C515   1.542       .  S
C511        C889   1.526       .  S
C512        H519   1.083       .  S
C512        C513   1.376       .  D
C513        C514   1.545   1_556  S
C514        C518   1.531       .  S
C514        C516   1.536       .  S
C514        H520   1.107       .  S
C515        H521   1.086       .  S
C515        C516   1.367   1_556  D
C517        H522   1.083       .  S
C517        C518   1.361       .  D
C518        C841   1.467       .  S
Zr523       O524   2.439       .  S
Zr523       O525   2.422       .  S
Zr523       O526   2.476       .  S
Zr523       O529   2.434       .  S
Zr523       O531   2.384       .  S
Zr523       O532   2.392       .  S
Zr523       O533   2.397       .  S
Zr523       O534   2.404       .  S
O524        H580   0.990       .  S
O524        H588   0.990       .  S
O525        C545   1.281       .  A
O526        C547   1.292       .  A
O527       Zr537   2.444       .  S
O527        C546   1.286       .  A
O528       Zr536   2.436       .  S
O528        C547   1.287       .  A
O529        C546   1.286       .  A
O530       Zr538   2.447       .  S
O530        C545   1.287       .  A
O531       Zr536   2.396       .  S
O531       Zr538   2.379       .  S
O532       Zr537   2.393       .  S
O532       Zr538   2.366       .  S
O532        H567   0.965       .  S
O533       Zr536   2.408       .  S
O533       Zr553   2.388       .  S
O533        H570   0.965       .  S
O534       Zr537   2.398       .  S
O534       Zr553   2.386       .  S
Zr535       O560   2.437       .  S
Zr535       O554   2.460       .  S
Zr535       O562   2.463       .  S
Zr535       O550   2.453       .  S
Zr535       O541   2.413       .  S
Zr535       O542   2.416       .  S
Zr535       O543   2.371       .  S
Zr535       O544   2.387       .  S
Zr536       O555   2.437       .  S
Zr536       O548   2.433       .  S
Zr536       O549   2.453       .  S
Zr536       O542   2.396       .  S
Zr536       O543   2.385       .  S
Zr537       O539   2.433       .  S
Zr537       O561   2.439       .  S
Zr537       O563   2.448       .  S
Zr537       O541   2.390       .  S
Zr537       O544   2.395       .  S
Zr538       O564   2.436       .  S
Zr538       O565   2.436       .  S
Zr538       O540   2.437       .  S
Zr538       O541   2.400       .  S
Zr538       O542   2.411       .  S
O539        H576   0.990       .  S
O540        H571   0.990       .  S
O540        H585   0.990       .  S
O542        H568   0.967       .  S
O543       Zr553   2.373       .  S
O544       Zr553   2.386       .  S
O544        H569   0.966       .  S
C545        C950   1.476       .  S
C546        C846   1.480       .  S
C547        C837   1.498       .  S
O548        H584   0.990       .  S
O549        C551   1.288       .  A
O550        C551   1.288       .  A
C551        C958   1.490       .  S
O552       Zr553   2.440       .  S
O552        H581   0.990       .  S
Zr553       O556   2.438       .  S
Zr553       O557   2.443       .  S
Zr553       O558   2.402       .  S
O554        C559   1.290       .  A
O555        H572   0.990       .  S
O555        H587   0.990       .  S
O556        H573   0.990       .  S
O557        H577   0.990       .  S
O557        H586   0.990       .  S
O558        C559   1.277       .  A
C559        C833   1.475       .  S
O560        H579   0.990       .  S
O560        H583   0.990       .  S
O561        H575   0.991       .  S
O561        H582   0.990       .  S
O562        C566   1.290       .  A
O563        C566   1.288       .  A
O564        H574   0.990       .  S
O565        H578   0.990       .  S
C566        C910   1.500       .  S
C589        C590   1.530       .  S
C589        C595   1.515   1_545  S
C589        C593   1.511       .  S
C589        C861   1.511       .  S
C590        H597   1.081       .  S
C590        C591   1.381   1_545  D
C591        C592   1.549       .  S
C591        C606   1.511   1_655  S
C592        C596   1.551       .  S
C592        C594   1.559       .  S
C592        H598   1.105       .  S
C593        H599   1.081       .  S
C593        C594   1.371   1_545  D
C594        C615   1.494       .  S
C595        H600   1.087       .  S
C595        C596   1.360       .  D
C596       C1002   1.482       .  S
C601        C602   1.536       .  S
C601        C607   1.515   1_545  S
C601        C605   1.519       .  S
C601        C897   1.514       .  S
C602        H609   1.077       .  S
C602        C603   1.382   1_545  D
C603        C604   1.551       .  S
C603        C630   1.509       .  S
C604        C608   1.548       .  S
C604        C606   1.564       .  S
C604        H610   1.105       .  S
C605        H611   1.082       .  S
C605        C606   1.367   1_545  D
C607        H612   1.088       .  S
C607        C608   1.360       .  D
C608        C834   1.472       .  S
C613        C614   1.525       .  S
C613        C619   1.516   1_545  S
C613        C617   1.521       .  S
C613        C874   1.503       .  S
C614        H621   1.082       .  S
C614        C615   1.372   1_545  D
C615        C616   1.542       .  S
C616        C620   1.543       .  S
C616        C618   1.552       .  S
C616        H622   1.103       .  S
C617        H623   1.082       .  S
C617        C618   1.367   1_545  D
C618        C627   1.492   1_655  S
C619        H624   1.087       .  S
C619        C620   1.364       .  D
C620        C830   1.467       .  S
C625        C626   1.531       .  S
C625        C631   1.522   1_545  S
C625        C629   1.518       .  S
C625        C825   1.508       .  S
C626        H633   1.082       .  S
C626        C627   1.376   1_545  D
C627        C628   1.541       .  S
C628        C632   1.551       .  S
C628        C630   1.561       .  S
C628        H634   1.103       .  S
C629        H635   1.081       .  S
C629        C630   1.369   1_545  D
C631        H636   1.087       .  S
C631        C632   1.362       .  D
C632        C878   1.485       .  S
Zr637       O638   2.441       .  S
Zr637       O639   2.462       .  S
Zr637       O640   2.451       .  S
Zr637       O643   2.467       .  S
Zr637       O645   2.385       .  S
Zr637       O646   2.378       .  S
Zr637       O647   2.421       .  S
Zr637       O648   2.406       .  S
O638        H694   0.990       .  S
O638        H702   0.990       .  S
O639        C659   1.288       .  A
O640        C661   1.289       .  A
O641       Zr651   2.405       .  S
O641        C660   1.280       .  A
O642       Zr650   2.417       .  S
O642        C661   1.280       .  A
O643        C660   1.290       .  A
O644       Zr652   2.417       .  S
O644        C659   1.282       .  A
O645       Zr650   2.405       .  S
O645       Zr652   2.377       .  S
O646       Zr651   2.378       .  S
O646       Zr652   2.376       .  S
O646        H681   0.965       .  S
O647       Zr650   2.406       .  S
O647       Zr667   2.402       .  S
O647        H684   0.966       .  S
O648       Zr651   2.394       .  S
O648       Zr667   2.409       .  S
Zr649       O674   2.441       .  S
Zr649       O668   2.421       .  S
Zr649       O676   2.409       .  S
Zr649       O664   2.417       .  S
Zr649       O655   2.395       .  S
Zr649       O656   2.399       .  S
Zr649       O657   2.375       .  S
Zr649       O658   2.377       .  S
Zr650       O669   2.436       .  S
Zr650       O662   2.436       .  S
Zr650       O663   2.442       .  S
Zr650       O656   2.392       .  S
Zr650       O657   2.379       .  S
Zr651       O653   2.434       .  S
Zr651       O675   2.439       .  S
Zr651       O677   2.405       .  S
Zr651       O655   2.388       .  S
Zr651       O658   2.387       .  S
Zr652       O678   2.437       .  S
Zr652       O679   2.435       .  S
Zr652       O654   2.437       .  S
Zr652       O655   2.395       .  S
Zr652       O656   2.394       .  S
O653        H690   0.990       .  S
O654        H685   0.990       .  S
O654        H699   0.990       .  S
O656        H682   0.966       .  S
O657       Zr667   2.369       .  S
O658       Zr667   2.364       .  S
O658        H683   0.966       .  S
C659        C850   1.489       .  S
C660        C929   1.482       .  S
C661        C922   1.470       .  S
O662        H698   0.990       .  S
O663        C665   1.288       .  A
O664        C665   1.280       .  A
C665        C829   1.472       .  S
O666       Zr667   2.439       .  S
O666        H695   0.990       .  S
Zr667       O670   2.438       .  S
Zr667       O671   2.439       .  S
Zr667       O672   2.461       .  S
O668        C673   1.281       .  A
O669        H686   0.990       .  S
O669        H701   0.990       .  S
O670        H687   0.990       .  S
O671        H691   0.990       .  S
O671        H700   0.990       .  S
O672        C673   1.290       .  A
C673        C966   1.482       .  S
O674        H693   0.990       .  S
O674        H697   0.990       .  S
O675        H689   0.990       .  S
O675        H696   0.990       .  S
O676        C680   1.281       .  A
O677        C680   1.279       .  A
O678        H688   0.990       .  S
O679        H692   0.990       .  S
C680        C821   1.449       .  S
C703        C704   1.544       .  S
C703        C709   1.534       .  S
C703        C707   1.537       .  S
C703       C1005   1.532       .  S
C704        H711   1.086       .  S
C704        C705   1.374       .  D
C705        C706   1.538   1_655  S
C705        C729   1.478   1_655  S
C706        C710   1.544       .  S
C706        C708   1.542   1_455  S
C706        H712   1.111       .  S
C707        H713   1.086       .  S
C707        C708   1.371       .  D
C708        C720   1.481   1_556  S
C709        H714   1.087       .  S
C709        C710   1.360   1_655  D
C710        C838   1.493       .  S
C715        C716   1.524       .  S
C715        C721   1.515   1_455  S
C715        C719   1.531       .  S
C715        C885   1.498       .  S
C716        H723   1.084       .  S
C716        C717   1.369   1_455  D
C717        C718   1.555       .  S
C717        C744   1.505       .  S
C718        C722   1.534       .  S
C718        C720   1.557       .  S
C718        H724   1.109       .  S
C719        H725   1.086       .  S
C719        C720   1.368   1_455  D
C721        H726   1.088       .  S
C721        C722   1.359       .  D
C722        C822   1.471       .  S
C727        C728   1.537       .  S
C727        C733   1.529       .  S
C727        C731   1.520       .  S
C727        C894   1.509       .  S
C728        H735   1.086       .  S
C728        C729   1.368       .  D
C729        C730   1.543   1_455  S
C730        C734   1.532       .  S
C730        C732   1.554   1_655  S
C730        H736   1.108       .  S
C731        H737   1.083       .  S
C731        C732   1.370       .  D
C732        C741   1.493   1_556  S
C733        H738   1.087       .  S
C733        C734   1.362   1_455  D
C734        C854   1.478       .  S
C739        C740   1.534       .  S
C739        C745   1.547   1_455  S
C739        C743   1.527       .  S
C739        C817   1.521       .  S
C740        H747   1.084       .  S
C740        C741   1.367       .  D
C741        C742   1.533   1_455  S
C742        C746   1.559       .  S
C742        C744   1.537       .  S
C742        H748   1.106       .  S
C743        H749   1.084       .  S
C743        C744   1.367   1_455  D
C745        H750   1.085       .  S
C745        C746   1.379       .  D
C746        C865   1.487       .  S
Zr751       O752   2.440       .  S
Zr751       O753   2.426       .  S
Zr751       O754   2.479       .  S
Zr751       O757   2.459       .  S
Zr751       O759   2.387       .  S
Zr751       O760   2.394       .  S
Zr751       O761   2.404       .  S
Zr751       O762   2.406       .  S
O752        H808   0.991       .  S
O752        H816   0.990       .  S
O753        C773   1.281       .  A
O754        C775   1.293       .  A
O755       Zr765   2.418       .  S
O755        C774   1.283       .  A
O756       Zr764   2.428       .  S
O756        C775   1.284       .  A
O757        C774   1.290       .  A
O758       Zr766   2.416       .  S
O758        C773   1.281       .  A
O759       Zr764   2.393       .  S
O759       Zr766   2.377       .  S
O760       Zr765   2.396       .  S
O760       Zr766   2.374       .  S
O760        H795   0.966       .  S
O761       Zr764   2.403       .  S
O761       Zr781   2.391       .  S
O761        H798   0.965       .  S
O762       Zr765   2.404       .  S
O762       Zr781   2.387       .  S
Zr763       O788   2.446       .  S
Zr763       O782   2.431       .  S
Zr763       O790   2.439       .  S
Zr763       O778   2.430       .  S
Zr763       O769   2.400       .  S
Zr763       O770   2.409       .  S
Zr763       O771   2.387       .  S
Zr763       O772   2.381       .  S
Zr764       O783   2.436       .  S
Zr764       O776   2.437       .  S
Zr764       O777   2.426       .  S
Zr764       O770   2.395       .  S
Zr764       O771   2.391       .  S
Zr765       O767   2.436       .  S
Zr765       O789   2.434       .  S
Zr765       O791   2.455       .  S
Zr765       O769   2.385       .  S
Zr765       O772   2.369       .  S
Zr766       O792   2.435       .  S
Zr766       O793   2.435       .  S
Zr766       O768   2.438       .  S
Zr766       O769   2.400       .  S
Zr766       O770   2.388       .  S
O767        H804   0.990       .  S
O768        H799   0.990       .  S
O768        H813   0.989       .  S
O770        H796   0.965       .  S
O771       Zr781   2.379       .  S
O772       Zr781   2.376       .  S
O772        H797   0.966       .  S
C773        C842   1.468       .  S
C774        C942   1.479       .  S
C775        C913   1.495       .  S
O776        H812   0.990       .  S
O777        C779   1.284       .  A
O778        C779   1.283       .  A
C779        C826   1.466       .  S
O780       Zr781   2.435       .  S
O780        H809   0.990       .  S
Zr781       O784   2.437       .  S
Zr781       O785   2.438       .  S
Zr781       O786   2.401       .  S
O782        C787   1.283       .  A
O783        H800   0.990       .  S
O783        H815   0.990       .  S
O784        H801   0.990       .  S
O785        H805   0.990       .  S
O785        H814   0.990       .  S
O786        C787   1.279       .  A
C787        C970   1.460       .  S
O788        H807   0.991       .  S
O788        H811   0.990       .  S
O789        H803   0.990       .  S
O789        H810   0.990       .  S
O790        C794   1.283       .  A
O791        C794   1.291       .  A
O792        H802   0.991       .  S
O793        H806   0.990       .  S
C794        C818   1.496       .  S
C817        H819   1.088       .  S
C817        C818   1.343       .  D
C818        H820   1.085       .  S
C821        H823   1.088       .  S
C821        C822   1.342       .  D
C822        H824   1.086       .  S
C825        H827   1.088       .  S
C825        C826   1.344       .  D
C826        H828   1.086       .  S
C829        H831   1.088       .  S
C829        C830   1.338       .  D
C830        H832   1.087       .  S
C833        H835   1.089       .  S
C833        C834   1.336       .  D
C834        H836   1.086       .  S
C837        H839   1.086       .  S
C837        C838   1.351       .  D
C838        H840   1.088       .  S
C841        H843   1.087       .  S
C841        C842   1.339       .  D
C842        H844   1.087       .  S
C845        H847   1.086       .  S
C845        C846   1.353       .  D
C846        H848   1.081       .  S
C849        H851   1.086       .  S
C849        C850   1.349       .  D
C850        H852   1.086       .  S
C853        H855   1.089       .  S
C853        C854   1.342       .  D
C854        H856   1.086       .  S
C857        H859   1.082       .  S
C857        C858   1.352       .  D
C858        H860   1.087       .  S
C861        H863   1.087       .  S
C861        C862   1.335       .  D
C862        H864   1.089       .  S
C865        H867   1.089       .  S
C865        C866   1.349       .  D
C866        H868   1.090       .  S
C869        H871   1.086       .  S
C869        C870   1.351       .  D
C870        H872   1.088       .  S
C873        H875   1.087       .  S
C873        C874   1.340       .  D
C874        H876   1.087       .  S
C877        H879   1.088       .  S
C877        C878   1.337       .  D
C878        H880   1.088       .  S
C881        H883   1.087       .  S
C881        C882   1.339       .  D
C882        H884   1.088       .  S
C885        H887   1.087       .  S
C885        C886   1.352       .  D
C886        H888   1.087       .  S
C889        H891   1.087       .  S
C889        C890   1.360       .  D
C890        H892   1.081       .  S
C893        H895   1.088       .  S
C893        C894   1.336       .  D
C894        H896   1.087       .  S
C897        H899   1.088       .  S
C897        C898   1.346       .  D
C898        H900   1.082       .  S
C901        H903   1.085       .  S
C901        C902   1.348       .  D
C902        H904   1.088       .  S
C905        H907   1.089       .  S
C905        C906   1.347       .  D
C906        H908   1.086       .  S
C909        H911   1.087       .  S
C909        C910   1.354       .  D
C910        H912   1.086       .  S
C913        H915   1.084       .  S
C913        C914   1.359       .  D
C914        H916   1.086       .  S
C917        H919   1.085       .  S
C917        C918   1.344       .  D
C918        H920   1.088       .  S
C921        H923   1.085       .  S
C921        C922   1.357       .  D
C922        H924   1.086       .  S
C925        H927   1.087       .  S
C925        C926   1.351       .  D
C926        H928   1.087       .  S
C929        H931   1.087       .  S
C929        C930   1.350       .  D
C930        H932   1.086       .  S
C933        H935   1.087       .  S
C933        C934   1.344       .  D
C934        H936   1.087       .  S
C937        H939   1.088       .  S
C937        C938   1.339       .  D
C938        H940   1.086       .  S
C941        H943   1.087       .  S
C941        C942   1.350       .  D
C942        H944   1.086       .  S
C945        H947   1.086       .  S
C945        C946   1.351       .  D
C946        H948   1.087       .  S
C949        H951   1.086       .  S
C949        C950   1.344       .  D
C950        H952   1.088       .  S
C953        H955   1.082       .  S
C953        C954   1.347       .  D
C954        H956   1.087       .  S
C957        H959   1.087       .  S
C957        C958   1.351       .  D
C958        H960   1.086       .  S
C961        H963   1.088       .  S
C961        C962   1.343       .  D
C962        H964   1.086       .  S
C965        H967   1.086       .  S
C965        C966   1.343       .  D
C966        H968   1.088       .  S
C969        H971   1.087       .  S
C969        C970   1.346       .  D
C970        H972   1.087       .  S
C973        H975   1.082       .  S
C973        C974   1.350       .  D
C974        H976   1.086       .  S
C977        H979   1.087       .  S
C977        C978   1.351       .  D
C978        H980   1.081       .  S
C981        H983   1.086       .  S
C981        C982   1.340       .  D
C982        H984   1.088       .  S
C985        H987   1.086       .  S
C985        C986   1.336       .  D
C986        H988   1.088       .  S
C989        H991   1.089       .  S
C989        C990   1.338       .  D
C990        H992   1.086       .  S
C993        H995   1.088       .  S
C993        C994   1.336       .  D
C994        H996   1.087       .  S
C997        H999   1.081       .  S
C997        C998   1.352       .  D
C998       H1000   1.087       .  S
C1001      H1003   1.088       .  S
C1001      C1002   1.343       .  D
C1002      H1004   1.085       .  S
C1005      H1007   1.086       .  S
C1005      C1006   1.349       .  D
C1006      H1008   1.088       .  S
