geometry optimzed in LAMMPS
_audit_creation_date              2020-11-30 
_audit_creation_method            'lammps2cif' 
_symmetry_space_group_name_H-M    'P1' 
_symmetry_Int_Tables_number       1 
_symmetry_cell_setting            triclinic 
loop_ 
_symmetry_equiv_pos_as_xyz 
  x,y,z 
_cell_length_a                    30.71984657 
_cell_length_b                    29.79238477578566 
_cell_length_c                    26.791034765681726 
_cell_angle_alpha                 89.67518408328739 
_cell_angle_beta                  90.47746213656745 
_cell_angle_gamma                 72.75945050200077 
loop_ 
_atom_site_label 
_atom_site_type_symbol 
_atom_site_fract_x 
_atom_site_fract_y 
_atom_site_fract_z 
_atom_site_charge 
N1          N  0.95768123  0.73492109  0.96675732    -0.03500
C2          C  0.94831432  0.77894825  0.98656816    -0.00900
C3          C  0.40174806  0.79986783  0.98905660    -0.23800
C4          C  0.38131576  0.76834222  0.97099478    -0.24000
C5          C  0.41577983  0.72904555  0.95760113    -0.01000
H6          H  0.38443983  0.83354433  0.00531511     0.12800
H7          H  0.34509338  0.77258443  0.97010663     0.12800
N8          N  0.04838238  0.25567585  0.04110440    -0.03500
C9          C  0.05044286  0.22923054  0.08294479    -0.00900
C10         C  0.08623437  0.23177384  0.11336191    -0.23800
C11         C  0.10657451  0.26131651  0.08998392    -0.24000
C12         C  0.08270999  0.27542166  0.04597480    -0.01000
H13         H  0.09722400  0.21291020  0.14809084     0.12800
H14         H  0.13565508  0.27132146  0.10345279     0.12800
O15         O  0.32346908  0.50960854  0.80855768    -0.81800
C16         C  0.19476881  0.41708255  0.86235568     0.97500
O17         O  0.20707373  0.44619964  0.88934987    -0.70900
O18         O  0.29519076  0.42376982  0.90105644    -0.74500
Al19       Al  0.25154073  0.47967571  0.88017578     1.49000
C20         C  0.33517214  0.40576548  0.88591603     0.92800
O21         O  0.31054191  0.39335177  0.76356562    -0.80800
O22         O  0.21699239  0.51706033  0.73901417    -0.74300
Al23       Al  0.31356345  0.45255642  0.78789977     1.90100
O24         O  0.24287398  0.42079680  0.72962563    -0.73400
O25         O  0.16517290  0.51043624  0.81721059    -0.73200
O26         O  0.20142244  0.41517733  0.81569888    -0.78900
O27         O  0.20616965  0.53826612  0.86828673    -0.77100
O28         O  0.25893701  0.46603760  0.81576753    -1.13200
O29         O  0.29475334  0.51505252  0.88365861    -0.72400
C30         C  0.31787142  0.52835929  0.85100752     0.98300
C31         C  0.28052488  0.38894133  0.73325197     0.94700
Al32       Al  0.21067351  0.46602486  0.77828017     1.55600
O33         O  0.34726423  0.41795513  0.84420086    -0.77000
C34         C  0.16798922  0.53996952  0.84973388     0.98900
C35         C  0.25302540  0.51587736  0.71580621     0.93700
O36         O  0.29070500  0.48526741  0.72609449    -0.82400
N37         N  0.33019581  0.68761380  0.48049131    -0.03500
C38         C  0.33953970  0.64497303  0.50351514    -0.00900
C39         C  0.38586735  0.62236027  0.50327172    -0.23800
C40         C  0.40601385  0.65197146  0.47974095    -0.24000
C41         C  0.37127763  0.69172284  0.46653045    -0.01000
H42         H  0.40323278  0.58846584  0.51980615     0.12800
H43         H  0.44219291  0.64604085  0.47471784     0.12800
N44         N  0.23847869  0.16915785  0.52431223    -0.03500
C45         C  0.23389620  0.19722196  0.56505117    -0.00900
C46         C  0.19496141  0.19770054  0.59089289    -0.23800
C47         C  0.17513763  0.16859194  0.56604996    -0.24000
C48         C  0.20235238  0.15161423  0.52560186    -0.01000
H49         H  0.18202297  0.21775926  0.62397184     0.12800
H50         H  0.14463725  0.16001308  0.57675825     0.12800
O51         O  0.09040066  0.99273747  0.30892734    -0.81800
C52         C  0.47056268  0.88740119  0.35347002     0.97500
O53         O  0.49233342  0.90311266  0.38595292    -0.70900
O54         O  0.08085845  0.87724448  0.37200665    -0.74500
Al55       Al  0.03693010  0.93671562  0.37957903     1.49000
C56         C  0.11730436  0.86960359  0.34795809     0.92800
O57         O  0.06480816  0.89412712  0.23657892    -0.80800
O58         O  0.47606940  0.01979178  0.26256752    -0.74300
Al59       Al  0.07552554  0.94380175  0.27446666     1.90100
O60         O  0.49185135  0.92957943  0.22444635    -0.73400
O61         O  0.44064634  0.99546594  0.34368528    -0.73200
O62         O  0.46457701  0.90401940  0.30972767    -0.78900
O63         O  0.49461296  0.99470441  0.39750610    -0.77100
O64         O  0.02841340  0.94713603  0.31413425    -1.13200
O65         O  0.08308350  0.96817846  0.38529187    -0.72400
C66         C  0.09702258  0.99395425  0.35542315     0.98300
C67         C  0.02822220  0.89823060  0.21274426     0.94700
Al68       Al  0.47277986  0.96111211  0.28736396     1.55600
O69         O  0.12001241  0.89640373  0.31219850    -0.77000
C70         C  0.45374454  0.01061174  0.38332779     0.98900
C71         C  0.00577319  0.02431884  0.23237177     0.93700
O72         O  0.04249222  0.99140895  0.22698375    -0.82400
C73         C  0.27647827  0.15380912  0.49070537    -0.05300
C74         C  0.26826702  0.15265139  0.43913831    -0.05200
C75         C  0.30191543  0.12637342  0.40728308    -0.23400
C76         C  0.34502112  0.10154350  0.42623981     0.18900
C77         C  0.35510395  0.10587182  0.47729662     0.16100
C78         C  0.32073383  0.13208822  0.50929475    -0.18400
C79         C  0.39870834  0.08194917  0.49580641    -0.20200
C80         C  0.43119421  0.05245460  0.46470570    -0.12800
C81         C  0.42068934  0.04581641  0.41451940     0.03900
C82         C  0.37764303  0.07140149  0.39533851    -0.24900
H83         H  0.23494809  0.17052299  0.42382295     0.09000
H84         H  0.29374521  0.12431961  0.36811545     0.12600
H85         H  0.32740384  0.13284477  0.54901740     0.12500
H86         H  0.40734366  0.08510550  0.53466739     0.12300
H87         H  0.46412424  0.03350138  0.48050173     0.12800
H88         H  0.36918441  0.06716732  0.35664093     0.14800
C89         C  0.12085123  0.02612761  0.37575259    -0.05300
C90         C  0.11482555  0.07044229  0.35369957    -0.05200
C91         C  0.13242869  0.10335984  0.37688297    -0.23400
C92         C  0.15697224  0.09203013  0.42194312     0.18900
C93         C  0.16588648  0.04627454  0.44239120     0.16100
C94         C  0.14744043  0.01378742  0.41938524    -0.18400
C95         C  0.19133389  0.03447853  0.48676638    -0.20200
C96         C  0.20580065  0.06841082  0.51208779    -0.12800
C97         C  0.19505419  0.11448356  0.49344078     0.03900
C98         C  0.17100016  0.12611847  0.44810748    -0.24900
H99         H  0.09463268  0.08038891  0.31984435     0.09000
H100        H  0.12579076  0.13804915  0.36032709     0.12600
H101        H  0.15279024  0.97929287  0.43605964     0.12500
H102        H  0.19871416  0.99948411  0.50275194     0.12300
H103        H  0.22371141  0.05930307  0.54743080     0.12800
H104        H  0.16145321  0.16209517  0.43446374     0.14800
C105        C  0.45292856  0.84818959  0.36630186    -0.05300
C106        C  0.46699691  0.80660320  0.33874350    -0.05200
C107        C  0.45251577  0.76795162  0.35183730    -0.23400
C108        C  0.42276633  0.77086101  0.39190023     0.18900
C109        C  0.40673087  0.81347534  0.41840276     0.16100
C110        C  0.42263855  0.85169948  0.40599020    -0.18400
C111        C  0.37562335  0.81676920  0.45726135    -0.20200
C112        C  0.36190960  0.77769844  0.47097437    -0.12800
C113        C  0.37963927  0.73468725  0.44656929     0.03900
C114        C  0.40955280  0.73161116  0.40659493    -0.24900
H115        H  0.49023696  0.80368570  0.30789353     0.09000
H116        H  0.46480458  0.73572303  0.33087095     0.12600
H117        H  0.41136884  0.88413598  0.42680692     0.12500
H118        H  0.36262327  0.84923114  0.47764996     0.12300
H119        H  0.33910926  0.78041867  0.50218615     0.12800
H120        H  0.42314024  0.69838275  0.38762698     0.14800
C121        C  0.28640616  0.71767189  0.46342999    -0.05300
C122        C  0.24999954  0.73447892  0.49637997    -0.05200
C123        C  0.20854472  0.76531078  0.47956730    -0.23400
C124        C  0.20301701  0.78066264  0.42963416     0.18900
C125        C  0.23940597  0.76396659  0.39614420     0.16100
C126        C  0.28044838  0.73219195  0.41308217    -0.18400
C127        C  0.23453228  0.78024287  0.34657826    -0.20200
C128        C  0.19439549  0.81372385  0.33060145    -0.12800
C129        C  0.15798631  0.83084969  0.36357276     0.03900
C130        C  0.16233137  0.81348473  0.41297281    -0.24900
H131        H  0.25385984  0.72521305  0.53545109     0.09000
H132        H  0.18116016  0.77810347  0.50595604     0.12600
H133        H  0.30828318  0.71921889  0.38724295     0.12500
H134        H  0.26219894  0.76787988  0.32043435     0.12300
H135        H  0.19197778  0.82663846  0.29249015     0.12800
H136        H  0.13477565  0.82696291  0.43903297     0.14800
C137        C  0.28828872  0.34614159  0.70261608    -0.05300
C138        C  0.30551544  0.30160664  0.72497340    -0.05200
C139        C  0.30495130  0.26112361  0.69897820    -0.23400
C140        C  0.28792660  0.26452365  0.64983542     0.18900
C141        C  0.27423261  0.30880539  0.62554021     0.16100
C142        C  0.27408986  0.34944276  0.65226731    -0.18400
C143        C  0.25792795  0.31197955  0.57609462    -0.20200
C144        C  0.25102565  0.27260978  0.55275409    -0.12800
C145        C  0.26034909  0.22958219  0.57843890     0.03900
C146        C  0.28090323  0.22519368  0.62607357    -0.24900
H147        H  0.31672988  0.29838028  0.76362540     0.09000
H148        H  0.31599422  0.22742250  0.71802430     0.12600
H149        H  0.26122442  0.38373766  0.63466423     0.12500
H150        H  0.24767088  0.34552608  0.55669168     0.12300
H151        H  0.23413475  0.27697244  0.51663819     0.12800
H152        H  0.28719244  0.19233034  0.64648684     0.14800
C153        C  0.25254439  0.55117514  0.67728954    -0.05300
C154        C  0.25055256  0.59685746  0.69176801    -0.05200
C155        C  0.26162870  0.62757631  0.65795827    -0.23400
C156        C  0.27449308  0.61297070  0.60913268     0.18900
C157        C  0.27289823  0.56827263  0.59323164     0.16100
C158        C  0.26221034  0.53745580  0.62761903    -0.18400
C159        C  0.28553886  0.55378581  0.54437181    -0.20200
C160        C  0.30287625  0.58175126  0.51284194    -0.12800
C161        C  0.30747853  0.62471288  0.52942168     0.03900
C162        C  0.29235271  0.64060722  0.57731918    -0.24900
H163        H  0.24351412  0.60759445  0.73018544     0.09000
H164        H  0.26230958  0.66182660  0.67067984     0.12600
H165        H  0.26402204  0.50197754  0.61667261     0.12500
H166        H  0.28444035  0.51973346  0.53151613     0.12300
H167        H  0.31569086  0.56835574  0.47660053     0.12800
H168        H  0.29824718  0.67234886  0.59145065     0.14800
C169        C  0.17161862  0.38599162  0.88631771    -0.05300
C170        C  0.17941929  0.33946513  0.87052973    -0.08600
C171        C  0.16126127  0.30878057  0.89717625    -0.23400
C172        C  0.13448691  0.32452669  0.93942843     0.18900
C173        C  0.12438587  0.37210563  0.95373778     0.16100
C174        C  0.14323678  0.40238065  0.92726546    -0.18400
C175        C  0.09708380  0.38815055  0.99549222    -0.20200
C176        C  0.08156431  0.35683687  0.02416385    -0.12800
C177        C  0.09287309  0.30929750  0.01125970     0.03900
C178        C  0.11903241  0.29327329  0.96871187    -0.24900
H179        H  0.20109458  0.32636591  0.83887421     0.09000
H180        H  0.16898227  0.27253403  0.88544332     0.12600
H181        H  0.13658106  0.43853745  0.93909758     0.12500
H182        H  0.08887013  0.42455793  0.00677922     0.12300
H183        H  0.06191312  0.36933597  0.05736364     0.12800
H184        H  0.12880010  0.25621170  0.95962666     0.14800
C185        C  0.36825324  0.37191310  0.91907947    -0.05300
C186        C  0.35746906  0.36819831  0.96962676    -0.05200
C187        C  0.38966071  0.34079156  0.00311994    -0.23400
C188        C  0.43329719  0.31611819  0.98679673     0.18900
C189        C  0.44387740  0.31732854  0.93558477     0.16100
C190        C  0.41133915  0.34532211  0.90202546    -0.18400
C191        C  0.48742466  0.29187798  0.91932642    -0.20200
C192        C  0.52090094  0.26817293  0.95382305    -0.12800
C193        C  0.51163569  0.26978495  0.00511474     0.03900
C194        C  0.46717700  0.29219946  0.02117109    -0.24900
H195        H  0.32452871  0.38796049  0.98386390     0.09000
H196        H  0.38079383  0.33998311  0.04213086     0.12600
H197        H  0.41997969  0.34740775  0.86306816     0.12500
H198        H  0.49607392  0.29159858  0.88014670     0.12300
H199        H  0.05462052  0.24989482  0.94066981     0.12800
H200        H  0.45991441  0.29364386  0.06078385     0.14800
C201        C  0.02568556  0.19460946  0.09231624    -0.05300
C202        C  0.53620944  0.15360973  0.06366306    -0.05200
C203        C  0.52987501  0.11231294  0.08320317    -0.23400
C204        C  0.01284213  0.11173240  0.13161946     0.18900
C205        C  0.99759616  0.15425621  0.15831932     0.16100
C206        C  0.00399319  0.19548152  0.13836696    -0.18400
C207        C  0.97977794  0.15405380  0.20630974    -0.20200
C208        C  0.97997023  0.11167811  0.22905979    -0.12800
C209        C  0.99857549  0.06886138  0.20453382     0.03900
C210        C  0.51368016  0.06911866  0.15513755    -0.24900
H211        H  0.55356685  0.15225059  0.02842229     0.09000
H212        H  0.54114142  0.08023871  0.06189082     0.12600
H213        H  0.99631172  0.22701800  0.16071598     0.12500
H214        H  0.96756532  0.18636253  0.22707101     0.12300
H215        H  0.96803246  0.11212133  0.26704794     0.12800
H216        H  0.52756997  0.03615317  0.13586435     0.14800
C217        C  0.00154064  0.70485666  0.94985109    -0.05300
C218        C  0.03493388  0.72457695  0.93193291    -0.05200
C219        C  0.07500006  0.69645432  0.90996001    -0.23400
C220        C  0.08188449  0.64815476  0.90348411     0.18900
C221        C  0.04858592  0.62796848  0.92093658     0.16100
C222        C  0.01000099  0.65585936  0.94578653    -0.18400
C223        C  0.05386489  0.58027804  0.91238743    -0.20200
C224        C  0.09180163  0.55278227  0.88689475    -0.12800
C225        C  0.12601787  0.57190901  0.87097206     0.03900
C226        C  0.12114593  0.61967033  0.87967511    -0.24900
H227        H  0.02951653  0.76207860  0.93326688     0.09000
H228        H  0.09985862  0.71280281  0.89648889     0.12600
H229        H  0.98648652  0.63901164  0.96125586     0.12500
H230        H  0.02844460  0.56429822  0.92507786     0.12300
H231        H  0.09529788  0.51590635  0.88117094     0.12800
H232        H  0.14750803  0.63456465  0.86751396     0.14800
C233        C  0.40511437  0.68529655  0.94475033    -0.05300
C234        C  0.39261639  0.65974640  0.98337422    -0.05200
C235        C  0.37378466  0.62354855  0.97276991    -0.23400
C236        C  0.36670674  0.61248033  0.92317740     0.18900
C237        C  0.38009170  0.63732825  0.88387412     0.16100
C238        C  0.39921072  0.67376154  0.89490927    -0.18400
C239        C  0.37300314  0.62601781  0.83431915    -0.20200
C240        C  0.35290109  0.59058467  0.82381965    -0.12800
C241        C  0.33899695  0.56602816  0.86259057     0.03900
C242        C  0.34593626  0.57739589  0.91232419    -0.24900
H243        H  0.39606914  0.66901707  0.02194744     0.09000
H244        H  0.36376145  0.60496194  0.00337619     0.12600
H245        H  0.40785070  0.69419933  0.86504681     0.12500
H246        H  0.38287172  0.64464844  0.80367020     0.12300
H247        H  0.34776960  0.58270464  0.78517846     0.12800
H248        H  0.33557593  0.55865236  0.94259577     0.14800
C249        C  0.02768571  0.86715627  0.17012542    -0.05300
C250        C  0.04343605  0.81805832  0.17563899    -0.05200
C251        C  0.53752099  0.78881872  0.13685929    -0.23400
C252        C  0.01652684  0.80834188  0.09166125     0.18900
C253        C  0.00410280  0.85767849  0.08471165     0.16100
C254        C  0.00915039  0.88671593  0.12413015    -0.18400
C255        C  0.98434743  0.87746448  0.03939789    -0.20200
C256        C  0.97250804  0.84939435  0.00339897    -0.12800
C257        C  0.97971367  0.80113424  0.01207956     0.03900
C258        C  0.00444417  0.78011267  0.05496000    -0.24900
H259        H  0.55824183  0.80243188  0.21080034     0.09000
H260        H  0.54785986  0.75114608  0.14285964     0.12600
H261        H  0.99762468  0.92459591  0.11953634     0.12500
H262        H  0.97533712  0.91505858  0.03309419     0.12300
H263        H  0.95340941  0.86626942  0.97074667     0.12800
H264        H  0.50975297  0.74306537  0.06226064     0.14800
N265        N  0.45768118  0.73492108  0.96675732    -0.03500
C266        C  0.44831426  0.77894825  0.98656818    -0.00900
C267        C  0.90174812  0.79986785  0.98905660    -0.23800
C268        C  0.88131589  0.76834222  0.97099481    -0.24000
C269        C  0.91577986  0.72904555  0.95760115    -0.01000
H270        H  0.88443990  0.83354434  0.00531510     0.12800
H271        H  0.84509326  0.77258446  0.97010667     0.12800
N272        N  0.54838236  0.25567584  0.04110438    -0.03500
C273        C  0.55044281  0.22923054  0.08294479    -0.00900
C274        C  0.58623430  0.23177385  0.11336192    -0.23800
C275        C  0.60657446  0.26131653  0.08998395    -0.24000
C276        C  0.58270996  0.27542166  0.04597480    -0.01000
H277        H  0.59722392  0.21291022  0.14809087     0.12800
H278        H  0.63565500  0.27132147  0.10345283     0.12800
O279        O  0.82346912  0.50960852  0.80855769    -0.81800
C280        C  0.69476882  0.41708254  0.86235569     0.97500
O281        O  0.70707375  0.44619962  0.88934989    -0.70900
O282        O  0.79519079  0.42376986  0.90105647    -0.74500
Al283      Al  0.75154073  0.47967573  0.88017578     1.49000
C284        C  0.83517215  0.40576549  0.88591607     0.92800
O285        O  0.81054193  0.39335175  0.76356563    -0.80800
O286        O  0.71699242  0.51706032  0.73901416    -0.74300
Al287      Al  0.81356347  0.45255641  0.78789979     1.90100
O288        O  0.74287400  0.42079677  0.72962563    -0.73400
O289        O  0.66517289  0.51043624  0.81721058    -0.73200
O290        O  0.70142244  0.41517733  0.81569889    -0.78900
O291        O  0.70616962  0.53826612  0.86828674    -0.77100
O292        O  0.75893702  0.46603760  0.81576754    -1.13200
O293        O  0.79475330  0.51505257  0.88365858    -0.72400
C294        C  0.81787142  0.52835931  0.85100751     0.98300
C295        C  0.78052492  0.38894131  0.73325196     0.94700
Al296      Al  0.71067352  0.46602485  0.77828016     1.55600
O297        O  0.84726425  0.41795511  0.84420087    -0.77000
C298        C  0.66798919  0.53996952  0.84973387     0.98900
C299        C  0.75302544  0.51587735  0.71580621     0.93700
O300        O  0.79070503  0.48526739  0.72609450    -0.82400
N301        N  0.83019584  0.68761382  0.48049130    -0.03500
C302        C  0.83953970  0.64497303  0.50351511    -0.00900
C303        C  0.88586734  0.62236024  0.50327169    -0.23800
C304        C  0.90601387  0.65197142  0.47974095    -0.24000
C305        C  0.87127769  0.69172282  0.46653044    -0.01000
H306        H  0.90323275  0.58846580  0.51980612     0.12800
H307        H  0.94219298  0.64604078  0.47471785     0.12800
N308        N  0.73847864  0.16915785  0.52431223    -0.03500
C309        C  0.73389614  0.19722195  0.56505118    -0.00900
C310        C  0.69496139  0.19770046  0.59089295    -0.23800
C311        C  0.67513770  0.16859182  0.56605001    -0.24000
C312        C  0.70235238  0.15161415  0.52560189    -0.01000
H313        H  0.68202297  0.21775912  0.62397187     0.12800
H314        H  0.64463723  0.16001285  0.57675837     0.12800
O315        O  0.59040060  0.99273748  0.30892735    -0.81800
C316        C  0.97056269  0.88740121  0.35347000     0.97500
O317        O  0.99233343  0.90311268  0.38595291    -0.70900
O318        O  0.58085843  0.87724446  0.37200665    -0.74500
Al319      Al  0.53693008  0.93671560  0.37957904     1.49000
C320        C  0.61730434  0.86960358  0.34795810     0.92800
O321        O  0.56480815  0.89412711  0.23657892    -0.80800
O322        O  0.97606944  0.01979180  0.26256751    -0.74300
Al323      Al  0.57552551  0.94380175  0.27446667     1.90100
O324        O  0.99185136  0.92957946  0.22444635    -0.73400
O325        O  0.94064635  0.99546597  0.34368525    -0.73200
O326        O  0.96457702  0.90401943  0.30972766    -0.78900
O327        O  0.99461297  0.99470444  0.39750609    -0.77100
O328        O  0.52841338  0.94713601  0.31413425    -1.13200
O329        O  0.58308347  0.96817845  0.38529187    -0.72400
C330        C  0.59702252  0.99395426  0.35542315     0.98300
C331        C  0.52822220  0.89823059  0.21274426     0.94700
Al332      Al  0.97277989  0.96111214  0.28736395     1.55600
O333        O  0.62001239  0.89640373  0.31219852    -0.77000
C334        C  0.95374455  0.01061176  0.38332779     0.98900
C335        C  0.50577314  0.02431883  0.23237179     0.93700
O336        O  0.54249217  0.99140894  0.22698376    -0.82400
C337        C  0.77647822  0.15380913  0.49070537    -0.05300
C338        C  0.76826697  0.15265139  0.43913830    -0.05200
C339        C  0.80191538  0.12637340  0.40728308    -0.23400
C340        C  0.84502106  0.10154347  0.42623981     0.18900
C341        C  0.85510391  0.10587180  0.47729661     0.16100
C342        C  0.82073378  0.13208821  0.50929474    -0.18400
C343        C  0.89870830  0.08194918  0.49580636    -0.20200
C344        C  0.93119425  0.05245460  0.46470571    -0.12800
C345        C  0.92068932  0.04581642  0.41451940     0.03900
C346        C  0.87764299  0.07140145  0.39533852    -0.24900
H347        H  0.73494804  0.17052302  0.42382295     0.09000
H348        H  0.79374515  0.12431958  0.36811544     0.12600
H349        H  0.82740380  0.13284476  0.54901741     0.12500
H350        H  0.90734365  0.08510554  0.53466747     0.12300
H351        H  0.96412409  0.03350153  0.48050165     0.12800
H352        H  0.86918436  0.06716726  0.35664093     0.14800
C353        C  0.62085115  0.02612763  0.37575259    -0.05300
C354        C  0.61482549  0.07044231  0.35369959    -0.05200
C355        C  0.63242868  0.10335984  0.37688297    -0.23400
C356        C  0.65697225  0.09203009  0.42194311     0.18900
C357        C  0.66588643  0.04627452  0.44239120     0.16100
C358        C  0.64744035  0.01378742  0.41938525    -0.18400
C359        C  0.69133381  0.03447848  0.48676640    -0.20200
C360        C  0.70580059  0.06841075  0.51208782    -0.12800
C361        C  0.69505421  0.11448348  0.49344079     0.03900
C362        C  0.67100021  0.12611842  0.44810746    -0.24900
H363        H  0.59463261  0.08038895  0.31984438     0.09000
H364        H  0.62579077  0.13804912  0.36032710     0.12600
H365        H  0.65279014  0.97929288  0.43605963     0.12500
H366        H  0.69871403  0.99948408  0.50275196     0.12300
H367        H  0.72371131  0.05930299  0.54743086     0.12800
H368        H  0.66145330  0.16209507  0.43446374     0.14800
C369        C  0.95292859  0.84818961  0.36630184    -0.05300
C370        C  0.96699698  0.80660321  0.33874344    -0.05200
C371        C  0.95251584  0.76795163  0.35183730    -0.23400
C372        C  0.92276642  0.77086099  0.39190025     0.18900
C373        C  0.90673095  0.81347532  0.41840277     0.16100
C374        C  0.92263860  0.85169949  0.40599019    -0.18400
C375        C  0.87562345  0.81676918  0.45726139    -0.20200
C376        C  0.86190974  0.77769840  0.47097437    -0.12800
C377        C  0.87963937  0.73468723  0.44656931     0.03900
C378        C  0.90955291  0.73161112  0.40659495    -0.24900
H379        H  0.99023690  0.80368573  0.30789360     0.09000
H380        H  0.96480466  0.73572301  0.33087094     0.12600
H381        H  0.91136889  0.88413598  0.42680692     0.12500
H382        H  0.86262338  0.84923109  0.47764999     0.12300
H383        H  0.83910932  0.78041864  0.50218629     0.12800
H384        H  0.92314033  0.69838276  0.38762703     0.14800
C385        C  0.78640621  0.71767194  0.46342999    -0.05300
C386        C  0.74999958  0.73447895  0.49637998    -0.05200
C387        C  0.70854473  0.76531078  0.47956731    -0.23400
C388        C  0.70301702  0.78066262  0.42963415     0.18900
C389        C  0.73940598  0.76396660  0.39614420     0.16100
C390        C  0.78044842  0.73219199  0.41308216    -0.18400
C391        C  0.73453227  0.78024285  0.34657824    -0.20200
C392        C  0.69439547  0.81372382  0.33060145    -0.12800
C393        C  0.65798630  0.83084967  0.36357276     0.03900
C394        C  0.66233134  0.81348470  0.41297282    -0.24900
H395        H  0.75385989  0.72521309  0.53545108     0.09000
H396        H  0.68116022  0.77810344  0.50595602     0.12600
H397        H  0.80828319  0.71921895  0.38724296     0.12500
H398        H  0.76219891  0.76787989  0.32043435     0.12300
H399        H  0.69197774  0.82663843  0.29249013     0.12800
H400        H  0.63477567  0.82696285  0.43903294     0.14800
C401        C  0.78828879  0.34614157  0.70261606    -0.05300
C402        C  0.80551552  0.30160663  0.72497337    -0.05200
C403        C  0.80495136  0.26112360  0.69897816    -0.23400
C404        C  0.78792662  0.26452365  0.64983539     0.18900
C405        C  0.77423266  0.30880539  0.62554018     0.16100
C406        C  0.77408995  0.34944275  0.65226727    -0.18400
C407        C  0.75792795  0.31197955  0.57609461    -0.20200
C408        C  0.75102557  0.27260980  0.55275411    -0.12800
C409        C  0.76034901  0.22958221  0.57843893     0.03900
C410        C  0.78090318  0.22519369  0.62607357    -0.24900
H411        H  0.81672996  0.29838026  0.76362535     0.09000
H412        H  0.81599428  0.22742248  0.71802427     0.12600
H413        H  0.76122452  0.38373765  0.63466420     0.12500
H414        H  0.74767090  0.34552607  0.55669166     0.12300
H415        H  0.73413464  0.27697248  0.51663823     0.12800
H416        H  0.78719239  0.19233035  0.64648684     0.14800
C417        C  0.75254445  0.55117514  0.67728955    -0.05300
C418        C  0.75055270  0.59685743  0.69176805    -0.05200
C419        C  0.76162882  0.62757632  0.65795831    -0.23400
C420        C  0.77449311  0.61297071  0.60913268     0.18900
C421        C  0.77289822  0.56827266  0.59323164     0.16100
C422        C  0.76221034  0.53745582  0.62761902    -0.18400
C423        C  0.78553881  0.55378585  0.54437178    -0.20200
C424        C  0.80287620  0.58175130  0.51284191    -0.12800
C425        C  0.80747851  0.62471291  0.52942165     0.03900
C426        C  0.79235273  0.64060726  0.57731917    -0.24900
H427        H  0.74351432  0.60759441  0.73018550     0.09000
H428        H  0.76230975  0.66182650  0.67067986     0.12600
H429        H  0.76402198  0.50197762  0.61667260     0.12500
H430        H  0.78444027  0.51973354  0.53151611     0.12300
H431        H  0.81569078  0.56835578  0.47660050     0.12800
H432        H  0.79824721  0.67234884  0.59145062     0.14800
C433        C  0.67161862  0.38599161  0.88631772    -0.05300
C434        C  0.67941924  0.33946514  0.87052971    -0.08600
C435        C  0.66126119  0.30878058  0.89717623    -0.23400
C436        C  0.63448687  0.32452670  0.93942842     0.18900
C437        C  0.62438585  0.37210563  0.95373779     0.16100
C438        C  0.64323678  0.40238065  0.92726549    -0.18400
C439        C  0.59708376  0.38815055  0.99549222    -0.20200
C440        C  0.58156426  0.35683687  0.02416385    -0.12800
C441        C  0.59287307  0.30929749  0.01125971     0.03900
C442        C  0.61903237  0.29327329  0.96871187    -0.24900
H443        H  0.70109449  0.32636593  0.83887418     0.09000
H444        H  0.66898217  0.27253406  0.88544328     0.12600
H445        H  0.63658109  0.43853741  0.93909762     0.12500
H446        H  0.58887009  0.42455792  0.00677922     0.12300
H447        H  0.56191308  0.36933597  0.05736361     0.12800
H448        H  0.62880005  0.25621172  0.95962666     0.14800
C449        C  0.86825325  0.37191311  0.91907950    -0.05300
C450        C  0.85746901  0.36819835  0.96962682    -0.05200
C451        C  0.88966071  0.34079155  0.00311996    -0.23400
C452        C  0.93329719  0.31611819  0.98679675     0.18900
C453        C  0.94387741  0.31732854  0.93558480     0.16100
C454        C  0.91133916  0.34532212  0.90202550    -0.18400
C455        C  0.98742467  0.29187798  0.91932643    -0.20200
C456        C  0.02090094  0.26817293  0.95382308    -0.12800
C457        C  0.01163571  0.26978495  0.00511476     0.03900
C458        C  0.96717701  0.29219945  0.02117112    -0.24900
H459        H  0.82452886  0.38796041  0.98386388     0.09000
H460        H  0.88079382  0.33998308  0.04213090     0.12600
H461        H  0.91997971  0.34740777  0.86306818     0.12500
H462        H  0.99607394  0.29159858  0.88014673     0.12300
H463        H  0.55462047  0.24989483  0.94066980     0.12800
H464        H  0.95991442  0.29364384  0.06078385     0.14800
C465        C  0.52568550  0.19460947  0.09231624    -0.05300
C466        C  0.03620952  0.15360972  0.06366305    -0.05200
C467        C  0.02987508  0.11231294  0.08320315    -0.23400
C468        C  0.51284208  0.11173241  0.13161948     0.18900
C469        C  0.49759613  0.15425622  0.15831936     0.16100
C470        C  0.50399316  0.19548152  0.13836699    -0.18400
C471        C  0.47977793  0.15405380  0.20630978    -0.20200
C472        C  0.47997020  0.11167811  0.22905985    -0.12800
C473        C  0.49857544  0.06886138  0.20453385     0.03900
C474        C  0.01368021  0.06911866  0.15513753    -0.24900
H475        H  0.05356695  0.15225058  0.02842231     0.09000
H476        H  0.04114151  0.08023868  0.06189079     0.12600
H477        H  0.49631171  0.22701800  0.16071601     0.12500
H478        H  0.46756532  0.18636254  0.22707106     0.12300
H479        H  0.46803246  0.11212133  0.26704793     0.12800
H480        H  0.02757005  0.03615315  0.13586433     0.14800
C481        C  0.50154062  0.70485666  0.94985110    -0.05300
C482        C  0.53493386  0.72457692  0.93193294    -0.05200
C483        C  0.57500009  0.69645436  0.90996001    -0.23400
C484        C  0.58188446  0.64815476  0.90348412     0.18900
C485        C  0.54858590  0.62796849  0.92093659     0.16100
C486        C  0.51000096  0.65585936  0.94578655    -0.18400
C487        C  0.55386488  0.58027805  0.91238744    -0.20200
C488        C  0.59180160  0.55278227  0.88689476    -0.12800
C489        C  0.62601784  0.57190901  0.87097205     0.03900
C490        C  0.62114588  0.61967032  0.87967511    -0.24900
H491        H  0.52951651  0.76207868  0.93326692     0.09000
H492        H  0.59985851  0.71280275  0.89648897     0.12600
H493        H  0.48648653  0.63901165  0.96125585     0.12500
H494        H  0.52844456  0.56429820  0.92507789     0.12300
H495        H  0.59529785  0.51590635  0.88117096     0.12800
H496        H  0.64750805  0.63456468  0.86751393     0.14800
C497        C  0.90511439  0.68529656  0.94475036    -0.05300
C498        C  0.89261635  0.65974643  0.98337422    -0.05200
C499        C  0.87378462  0.62354856  0.97276994    -0.23400
C500        C  0.86670675  0.61248034  0.92317740     0.18900
C501        C  0.88009177  0.63732822  0.88387413     0.16100
C502        C  0.89921080  0.67376151  0.89490928    -0.18400
C503        C  0.87300323  0.62601778  0.83431915    -0.20200
C504        C  0.85290115  0.59058466  0.82381965    -0.12800
C505        C  0.83899697  0.56602818  0.86259056     0.03900
C506        C  0.84593625  0.57739589  0.91232422    -0.24900
H507        H  0.89606907  0.66901712  0.02194747     0.09000
H508        H  0.86376140  0.60496205  0.00337610     0.12600
H509        H  0.90785082  0.69419926  0.86504684     0.12500
H510        H  0.88287183  0.64464838  0.80367021     0.12300
H511        H  0.84776967  0.58270463  0.78517844     0.12800
H512        H  0.83557594  0.55865244  0.94259566     0.14800
C513        C  0.52768574  0.86715626  0.17012540    -0.05300
C514        C  0.54343610  0.81805831  0.17563897    -0.05200
C515        C  0.03752094  0.78881873  0.13685932    -0.23400
C516        C  0.51652685  0.80834189  0.09166124     0.18900
C517        C  0.50410280  0.85767849  0.08471164     0.16100
C518        C  0.50915041  0.88671593  0.12413014    -0.18400
C519        C  0.48434739  0.87746450  0.03939790    -0.20200
C520        C  0.47250795  0.84939437  0.00339899    -0.12800
C521        C  0.47971360  0.80113426  0.01207959     0.03900
C522        C  0.50444414  0.78011267  0.05496000    -0.24900
H523        H  0.05824177  0.80243188  0.21080040     0.09000
H524        H  0.04785980  0.75114608  0.14285968     0.12600
H525        H  0.49762469  0.92459591  0.11953634     0.12500
H526        H  0.47533707  0.91505858  0.03309420     0.12300
H527        H  0.45340930  0.86626943  0.97074673     0.12800
H528        H  0.00975300  0.74306533  0.06226065     0.14800
loop_ 
_geom_bond_atom_site_label_1 
_geom_bond_atom_site_label_2 
_geom_bond_distance 
_geom_bond_site_symmetry_2 
_ccdc_geom_bond_type 
N1            C2   1.368       .  A
N1          C269   1.370       .  A
N1          C217   1.457   1_655  S
C2          C257   1.485   1_556  S
C2          C267   1.383       .  A
C3            C4   1.364       .  A
C3          C266   1.383       .  A
C3            H6   1.082   1_556  S
C4            C5   1.377       .  A
C4            H7   1.082       .  S
C5          N265   1.370       .  A
C5          C233   1.477       .  S
N8           C12   1.357       .  A
N8            C9   1.357       .  A
N8          C457   1.441       .  S
C9          C201   1.473       .  S
C9           C10   1.383       .  A
C10          C11   1.372       .  A
C10          H13   1.083       .  S
C11          C12   1.379       .  A
C11          H14   1.082       .  S
C12         C177   1.470       .  S
O15          C30   1.260       .  A
O15         Al23   1.898       .  S
C16         C169   1.472       .  S
C16          O26   1.267       .  A
C16          O17   1.271       .  A
O17         Al19   1.932       .  S
O18          C20   1.257       .  A
O18         Al19   1.881       .  S
Al19         O27   1.907       .  S
Al19         O29   1.926       .  S
Al19         O28   1.776       .  S
C20         C185   1.485       .  S
C20          O33   1.265       .  A
O21          C31   1.260       .  A
O21         Al23   1.912       .  S
O22          C35   1.266       .  A
O22         Al32   1.902       .  S
Al23         O36   1.934       .  S
Al23         O33   1.932       .  S
Al23         O28   1.778       .  S
O24          C31   1.263       .  A
O24         Al32   1.935       .  S
O25          C34   1.262       .  A
O25         Al32   1.933       .  S
O26         Al32   1.903       .  S
O27          C34   1.257       .  A
O28         Al32   1.784       .  S
O29          C30   1.265       .  A
C30         C241   1.486       .  S
C31         C137   1.480       .  S
C34         C225   1.477       .  S
C35         C153   1.466       .  S
C35          O36   1.270       .  A
N37          C41   1.359       .  A
N37          C38   1.360       .  A
N37         C121   1.446       .  S
C38         C161   1.475       .  S
C38          C39   1.382       .  A
C39          C40   1.372       .  A
C39          H42   1.083       .  S
C40          C41   1.381       .  A
C40          H43   1.082       .  S
C41         C113   1.476       .  S
N44          C48   1.360       .  A
N44          C45   1.361       .  A
N44          C73   1.445       .  S
C45         C145   1.477       .  S
C45          C46   1.383       .  A
C46          C47   1.371       .  A
C46          H49   1.082       .  S
C47          C48   1.378       .  A
C47          H50   1.082       .  S
C48          C97   1.473       .  S
O51          C66   1.263       .  A
O51         Al59   1.895       .  S
C52         C105   1.466       .  S
C52          O62   1.260       .  A
C52          O53   1.267       .  A
O53        Al319   1.930       .  S
O54          C56   1.258       .  A
O54         Al55   1.895       .  S
Al55         O65   1.923       .  S
Al55        O317   1.930   1_455  S
Al55        O327   1.896   1_455  S
Al55         O64   1.782       .  S
C56         C129   1.483       .  S
C56          O69   1.263       .  A
O57          C67   1.262       .  A
O57         Al59   1.905       .  S
O58         C335   1.261       .  A
O58         Al68   1.897   1_545  S
Al59         O72   1.940       .  S
Al59         O69   1.924       .  S
Al59         O64   1.782       .  S
O60         C331   1.269       .  A
O60         Al68   1.943       .  S
O61          C70   1.265   1_565  A
O61         Al68   1.934       .  S
O62         Al68   1.887       .  S
O63          C70   1.258   1_565  A
O63        Al319   1.896       .  S
O64        Al332   1.778   1_455  S
O65          C66   1.268       .  A
C66          C89   1.472   1_565  S
C67         C249   1.477       .  S
C67         O324   1.269   1_455  A
Al68        O328   1.778       .  S
C70          C81   1.491       .  S
C71         C209   1.476   1_455  S
C71          O72   1.266   1_545  A
C71         O322   1.261   1_455  A
C73          C74   1.405       .  A
C73          C78   1.407       .  A
C74          C75   1.397       .  A
C74          H83   1.080       .  S
C75          C76   1.401       .  A
C75          H84   1.083       .  S
C76          C82   1.409       .  A
C76          C77   1.415       .  A
C77          C79   1.403       .  A
C77          C78   1.412       .  A
C78          H85   1.084       .  S
C79          C80   1.402       .  A
C79          H86   1.084       .  S
C80          C81   1.409       .  A
C80          H87   1.083       .  S
C81          C82   1.407       .  A
C82          H88   1.084       .  S
C89          C90   1.404       .  A
C89          C94   1.404       .  A
C90          C91   1.398       .  A
C90          H99   1.083       .  S
C91          C92   1.403       .  A
C91         H100   1.084       .  S
C92          C98   1.404       .  A
C92          C93   1.415       .  A
C93          C95   1.402       .  A
C93          C94   1.401       .  A
C94         H101   1.085   1_545  S
C95          C96   1.396       .  A
C95         H102   1.084   1_545  S
C96          C97   1.401       .  A
C96         H103   1.083       .  S
C97          C98   1.403       .  A
C98         H104   1.084       .  S
C105        C106   1.402       .  A
C105        C110   1.403       .  A
C106        C107   1.396       .  A
C106        H115   1.084       .  S
C107        C108   1.402       .  A
C107        H116   1.084       .  S
C108        C114   1.402       .  A
C108        C109   1.416       .  A
C109        C111   1.403       .  A
C109        C110   1.405       .  A
C110        H117   1.084       .  S
C111        C112   1.398       .  A
C111        H118   1.083       .  S
C112        C113   1.403       .  A
C112        H119   1.083       .  S
C113        C114   1.403       .  A
C114        H120   1.085       .  S
C121        C122   1.404       .  A
C121        C126   1.408       .  A
C122        C123   1.400       .  A
C122        H131   1.078       .  S
C123        C124   1.404       .  A
C123        H132   1.084       .  S
C124        C130   1.407       .  A
C124        C125   1.412       .  A
C125        C127   1.403       .  A
C125        C126   1.403       .  A
C126        H133   1.085       .  S
C127        C128   1.398       .  A
C127        H134   1.084       .  S
C128        C129   1.405       .  A
C128        H135   1.083       .  S
C129        C130   1.409       .  A
C130        H136   1.085       .  S
C137        C138   1.403       .  A
C137        C142   1.408       .  A
C138        C139   1.401       .  A
C138        H147   1.083       .  S
C139        C140   1.405       .  A
C139        H148   1.083       .  S
C140        C146   1.407       .  A
C140        C141   1.413       .  A
C141        C143   1.405       .  A
C141        C142   1.409       .  A
C142        H149   1.084       .  S
C143        C144   1.402       .  A
C143        H150   1.083       .  S
C144        C145   1.403       .  A
C144        H151   1.083       .  S
C145        C146   1.407       .  A
C146        H152   1.084       .  S
C153        C154   1.401       .  A
C153        C158   1.402       .  A
C154        C155   1.398       .  A
C154        H163   1.084       .  S
C155        C156   1.403       .  A
C155        H164   1.084       .  S
C156        C162   1.405       .  A
C156        C157   1.415       .  A
C157        C159   1.402       .  A
C157        C158   1.405       .  A
C158        H165   1.084       .  S
C159        C160   1.398       .  A
C159        H166   1.083       .  S
C160        C161   1.403       .  A
C160        H167   1.084       .  S
C161        C162   1.405       .  A
C162        H168   1.084       .  S
C169        C170   1.403       .  A
C169        C174   1.404       .  A
C170        C171   1.399       .  A
C170        H179   1.084       .  S
C171        C172   1.404       .  A
C171        H180   1.084       .  S
C172        C178   1.403       .  A
C172        C173   1.414       .  A
C173        C175   1.403       .  A
C173        C174   1.400       .  A
C174        H181   1.085       .  S
C175        C176   1.396   1_556  A
C175        H182   1.084   1_556  S
C176        C177   1.401       .  A
C176        H183   1.083       .  S
C177        C178   1.403   1_554  A
C178        H184   1.085       .  S
C185        C186   1.408       .  A
C185        C190   1.407       .  A
C186        C187   1.396   1_556  A
C186        H195   1.083       .  S
C187        C188   1.399   1_554  A
C187        H196   1.084       .  S
C188        C194   1.406   1_556  A
C188        C189   1.415       .  A
C189        C191   1.402       .  A
C189        C190   1.409       .  A
C190        H197   1.085       .  S
C191        C192   1.399       .  A
C191        H198   1.084       .  S
C192        C193   1.404   1_556  A
C192        H463   1.081       .  S
C193        N272   1.441       .  S
C193        C194   1.403       .  A
C194        H200   1.085       .  S
H199        C456   1.081       .  S
C201        C206   1.404       .  A
C201        C466   1.402       .  A
C202        C203   1.401       .  A
C202        C465   1.402       .  A
C202        H211   1.083       .  S
C203        C468   1.405       .  A
C203        H212   1.083       .  S
C204        C205   1.414   1_455  A
C204        C467   1.405       .  A
C204        C474   1.407       .  A
C205        C207   1.402       .  A
C205        C206   1.404   1_655  A
C206        H213   1.084   1_455  S
C207        C208   1.397       .  A
C207        H214   1.083       .  S
C208        C209   1.403       .  A
C208        H215   1.083       .  S
C209        C474   1.407   1_655  A
C210        C468   1.407       .  A
C210        C473   1.407       .  A
C210        H216   1.084       .  S
C217        C218   1.411       .  A
C217        C222   1.410       .  A
C218        C219   1.404       .  A
C218        H227   1.081       .  S
C219        C220   1.403       .  A
C219        H228   1.083       .  S
C220        C226   1.412       .  A
C220        C221   1.413       .  A
C221        C223   1.402       .  A
C221        C222   1.405       .  A
C222        H229   1.078   1_455  S
C223        C224   1.396       .  A
C223        H230   1.084       .  S
C224        C225   1.404       .  A
C224        H231   1.084       .  S
C225        C226   1.407       .  A
C226        H232   1.084       .  S
C233        C234   1.403       .  A
C233        C238   1.404       .  A
C234        C235   1.396       .  A
C234        H243   1.084   1_556  S
C235        C236   1.401       .  A
C235        H244   1.083   1_556  S
C236        C242   1.407       .  A
C236        C237   1.416       .  A
C237        C239   1.403       .  A
C237        C238   1.410       .  A
C238        H245   1.084       .  S
C239        C240   1.401       .  A
C239        H246   1.083       .  S
C240        C241   1.407       .  A
C240        H247   1.083       .  S
C241        C242   1.407       .  A
C242        H248   1.084       .  S
C249        C250   1.404       .  A
C249        C254   1.402       .  A
C250        C515   1.404       .  A
C250        H523   1.083       .  S
C251        C514   1.404       .  A
C251        C516   1.406       .  A
C251        H260   1.083       .  S
C252        C258   1.414       .  A
C252        C253   1.416       .  A
C252        C515   1.406       .  A
C253        C255   1.399   1_455  A
C253        C254   1.405       .  A
C254        H261   1.084   1_455  S
C255        C256   1.395       .  A
C255        H262   1.083       .  S
C256        C257   1.406       .  A
C256        H263   1.083   1_554  S
C257        C258   1.409   1_655  A
C258        H528   1.083       .  S
H259        C514   1.083       .  S
H264        C522   1.083       .  S
N265        C266   1.368       .  A
N265        C481   1.457       .  S
C266        C521   1.485   1_556  S
C267        C268   1.364       .  A
C267        H270   1.082   1_556  S
C268        C269   1.377       .  A
C268        H271   1.082       .  S
C269        C497   1.477       .  S
N272        C276   1.357       .  A
N272        C273   1.357       .  A
C273        C465   1.473       .  S
C273        C274   1.383       .  A
C274        C275   1.372       .  A
C274        H277   1.083       .  S
C275        C276   1.379       .  A
C275        H278   1.082       .  S
C276        C441   1.470       .  S
O279        C294   1.260       .  A
O279       Al287   1.898       .  S
C280        C433   1.472       .  S
C280        O290   1.267       .  A
C280        O281   1.271       .  A
O281       Al283   1.932       .  S
O282        C284   1.257       .  A
O282       Al283   1.881       .  S
Al283       O291   1.907       .  S
Al283       O293   1.926       .  S
Al283       O292   1.776       .  S
C284        C449   1.485       .  S
C284        O297   1.265       .  A
O285        C295   1.260       .  A
O285       Al287   1.912       .  S
O286        C299   1.266       .  A
O286       Al296   1.902       .  S
Al287       O300   1.934       .  S
Al287       O297   1.932       .  S
Al287       O292   1.778       .  S
O288        C295   1.263       .  A
O288       Al296   1.935       .  S
O289        C298   1.262       .  A
O289       Al296   1.933       .  S
O290       Al296   1.903       .  S
O291        C298   1.257       .  A
O292       Al296   1.784       .  S
O293        C294   1.265       .  A
C294        C505   1.486       .  S
C295        C401   1.480       .  S
C298        C489   1.477       .  S
C299        C417   1.466       .  S
C299        O300   1.270       .  A
N301        C305   1.359       .  A
N301        C302   1.360       .  A
N301        C385   1.446       .  S
C302        C425   1.475       .  S
C302        C303   1.382       .  A
C303        C304   1.372       .  A
C303        H306   1.083       .  S
C304        C305   1.381       .  A
C304        H307   1.082       .  S
C305        C377   1.476       .  S
N308        C312   1.360       .  A
N308        C309   1.361       .  A
N308        C337   1.445       .  S
C309        C409   1.477       .  S
C309        C310   1.383       .  A
C310        C311   1.371       .  A
C310        H313   1.082       .  S
C311        C312   1.378       .  A
C311        H314   1.082       .  S
C312        C361   1.473       .  S
O315        C330   1.263       .  A
O315       Al323   1.895       .  S
C316        C369   1.466       .  S
C316        O326   1.260       .  A
C316        O317   1.267       .  A
O318        C320   1.258       .  A
O318       Al319   1.895       .  S
Al319       O329   1.923       .  S
Al319       O328   1.782       .  S
C320        C393   1.483       .  S
C320        O333   1.263       .  A
O321        C331   1.262       .  A
O321       Al323   1.905       .  S
O322       Al332   1.897   1_545  S
Al323       O336   1.940       .  S
Al323       O333   1.924       .  S
Al323       O328   1.782       .  S
O324       Al332   1.943       .  S
O325        C334   1.265   1_565  A
O325       Al332   1.934       .  S
O326       Al332   1.887       .  S
O327        C334   1.258   1_565  A
O329        C330   1.268       .  A
C330        C353   1.472   1_565  S
C331        C513   1.477       .  S
C334        C345   1.491       .  S
C335        C473   1.476       .  S
C335        O336   1.266   1_545  A
C337        C338   1.405       .  A
C337        C342   1.407       .  A
C338        C339   1.397       .  A
C338        H347   1.080       .  S
C339        C340   1.401       .  A
C339        H348   1.083       .  S
C340        C346   1.409       .  A
C340        C341   1.415       .  A
C341        C343   1.403       .  A
C341        C342   1.412       .  A
C342        H349   1.084       .  S
C343        C344   1.402       .  A
C343        H350   1.084       .  S
C344        C345   1.409       .  A
C344        H351   1.083       .  S
C345        C346   1.407       .  A
C346        H352   1.084       .  S
C353        C354   1.404       .  A
C353        C358   1.404       .  A
C354        C355   1.398       .  A
C354        H363   1.083       .  S
C355        C356   1.403       .  A
C355        H364   1.084       .  S
C356        C362   1.404       .  A
C356        C357   1.415       .  A
C357        C359   1.402       .  A
C357        C358   1.401       .  A
C358        H365   1.085   1_545  S
C359        C360   1.396       .  A
C359        H366   1.084   1_545  S
C360        C361   1.401       .  A
C360        H367   1.083       .  S
C361        C362   1.403       .  A
C362        H368   1.084       .  S
C369        C370   1.402       .  A
C369        C374   1.403       .  A
C370        C371   1.396       .  A
C370        H379   1.084       .  S
C371        C372   1.402       .  A
C371        H380   1.084       .  S
C372        C378   1.402       .  A
C372        C373   1.416       .  A
C373        C375   1.403       .  A
C373        C374   1.405       .  A
C374        H381   1.084       .  S
C375        C376   1.398       .  A
C375        H382   1.083       .  S
C376        C377   1.403       .  A
C376        H383   1.083       .  S
C377        C378   1.403       .  A
C378        H384   1.085       .  S
C385        C386   1.404       .  A
C385        C390   1.408       .  A
C386        C387   1.400       .  A
C386        H395   1.078       .  S
C387        C388   1.404       .  A
C387        H396   1.084       .  S
C388        C394   1.407       .  A
C388        C389   1.412       .  A
C389        C391   1.403       .  A
C389        C390   1.403       .  A
C390        H397   1.085       .  S
C391        C392   1.398       .  A
C391        H398   1.084       .  S
C392        C393   1.405       .  A
C392        H399   1.083       .  S
C393        C394   1.409       .  A
C394        H400   1.085       .  S
C401        C402   1.403       .  A
C401        C406   1.408       .  A
C402        C403   1.401       .  A
C402        H411   1.083       .  S
C403        C404   1.405       .  A
C403        H412   1.083       .  S
C404        C410   1.407       .  A
C404        C405   1.413       .  A
C405        C407   1.405       .  A
C405        C406   1.409       .  A
C406        H413   1.084       .  S
C407        C408   1.402       .  A
C407        H414   1.083       .  S
C408        C409   1.403       .  A
C408        H415   1.083       .  S
C409        C410   1.407       .  A
C410        H416   1.084       .  S
C417        C418   1.401       .  A
C417        C422   1.402       .  A
C418        C419   1.398       .  A
C418        H427   1.084       .  S
C419        C420   1.403       .  A
C419        H428   1.084       .  S
C420        C426   1.405       .  A
C420        C421   1.415       .  A
C421        C423   1.402       .  A
C421        C422   1.405       .  A
C422        H429   1.084       .  S
C423        C424   1.398       .  A
C423        H430   1.083       .  S
C424        C425   1.403       .  A
C424        H431   1.084       .  S
C425        C426   1.405       .  A
C426        H432   1.084       .  S
C433        C434   1.403       .  A
C433        C438   1.404       .  A
C434        C435   1.399       .  A
C434        H443   1.084       .  S
C435        C436   1.404       .  A
C435        H444   1.084       .  S
C436        C442   1.403       .  A
C436        C437   1.414       .  A
C437        C439   1.403       .  A
C437        C438   1.400       .  A
C438        H445   1.085       .  S
C439        C440   1.396   1_556  A
C439        H446   1.084   1_556  S
C440        C441   1.401       .  A
C440        H447   1.083       .  S
C441        C442   1.403   1_554  A
C442        H448   1.085       .  S
C449        C450   1.408       .  A
C449        C454   1.407       .  A
C450        C451   1.396   1_556  A
C450        H459   1.083       .  S
C451        C452   1.399   1_554  A
C451        H460   1.084       .  S
C452        C458   1.406   1_556  A
C452        C453   1.415       .  A
C453        C455   1.402       .  A
C453        C454   1.409       .  A
C454        H461   1.085       .  S
C455        C456   1.399   1_655  A
C455        H462   1.084       .  S
C456        C457   1.404   1_556  A
C457        C458   1.403   1_455  A
C458        H464   1.085       .  S
C465        C470   1.404       .  A
C466        C467   1.401       .  A
C466        H475   1.083       .  S
C467        H476   1.083       .  S
C468        C469   1.414       .  A
C469        C471   1.402       .  A
C469        C470   1.404       .  A
C470        H477   1.084       .  S
C471        C472   1.397       .  A
C471        H478   1.083       .  S
C472        C473   1.403       .  A
C472        H479   1.083       .  S
C474        H480   1.084       .  S
C481        C482   1.411       .  A
C481        C486   1.410       .  A
C482        C483   1.404       .  A
C482        H491   1.081       .  S
C483        C484   1.403       .  A
C483        H492   1.083       .  S
C484        C490   1.412       .  A
C484        C485   1.413       .  A
C485        C487   1.402       .  A
C485        C486   1.405       .  A
C486        H493   1.078       .  S
C487        C488   1.396       .  A
C487        H494   1.084       .  S
C488        C489   1.404       .  A
C488        H495   1.084       .  S
C489        C490   1.407       .  A
C490        H496   1.084       .  S
C497        C498   1.403       .  A
C497        C502   1.404       .  A
C498        C499   1.396       .  A
C498        H507   1.084   1_556  S
C499        C500   1.401       .  A
C499        H508   1.083   1_556  S
C500        C506   1.407       .  A
C500        C501   1.416       .  A
C501        C503   1.403       .  A
C501        C502   1.410       .  A
C502        H509   1.084       .  S
C503        C504   1.401       .  A
C503        H510   1.083       .  S
C504        C505   1.407       .  A
C504        H511   1.083       .  S
C505        C506   1.407       .  A
C506        H512   1.084       .  S
C513        C514   1.404       .  A
C513        C518   1.402       .  A
C515        H524   1.083       .  S
C516        C522   1.414       .  A
C516        C517   1.416       .  A
C517        C519   1.399       .  A
C517        C518   1.405       .  A
C518        H525   1.084       .  S
C519        C520   1.395       .  A
C519        H526   1.083       .  S
C520        C521   1.406       .  A
C520        H527   1.083   1_554  S
C521        C522   1.409       .  A
