geometry optimzed in LAMMPS
_audit_creation_date              2020-12-01 
_audit_creation_method            'lammps2cif' 
_symmetry_space_group_name_H-M    'P1' 
_symmetry_Int_Tables_number       1 
_symmetry_cell_setting            triclinic 
loop_ 
_symmetry_equiv_pos_as_xyz 
  x,y,z 
_cell_length_a                    34.90477063 
_cell_length_b                    34.89758844538381 
_cell_length_c                    26.246249982976728 
_cell_angle_alpha                 90.08300671210391 
_cell_angle_beta                  90.11221789319467 
_cell_angle_gamma                 90.04546189669782 
loop_ 
_atom_site_label 
_atom_site_type_symbol 
_atom_site_fract_x 
_atom_site_fract_y 
_atom_site_fract_z 
_atom_site_charge 
O1          O  0.41090396  0.92903811  0.98875421    -0.74900
O2          O  0.40553203  0.81962887  0.48811712    -0.75000
O3          O  0.40865485  0.87515351  0.41566151    -0.75000
O4          O  0.40785706  0.87489007  0.06218433    -0.75100
O5          O  0.34396976  0.87760620  0.06173655    -0.75000
O6          O  0.34481141  0.87869180  0.41547065    -0.75000
O7          O  0.34141584  0.82226076  0.98899141    -0.74900
O8          O  0.34768247  0.93249525  0.48942423    -0.75000
Ni9        Ni  0.41081396  0.87442297  0.48871350     1.25400
Ni10       Ni  0.34240380  0.87783604  0.48841540     1.25400
C11         C  0.38049083  0.94899972  0.48921965     0.87300
C12         C  0.37246405  0.80274187  0.98985821     0.87200
C13         C  0.37676905  0.87748545  0.39160741     0.87200
C14         C  0.37587902  0.87677364  0.08591636     0.87400
O15         O  0.41165672  0.93215005  0.23883387    -0.74900
O16         O  0.40477980  0.82244753  0.23793488    -0.75000
O17         O  0.40798502  0.87719219  0.16562159    -0.75000
O18         O  0.40856076  0.87686123  0.31158183    -0.75100
O19         O  0.34478773  0.88135790  0.31191241    -0.75000
O20         O  0.34410887  0.87990673  0.16589332    -0.75000
O21         O  0.34111644  0.82610284  0.24020034    -0.74900
O22         O  0.34782086  0.93561617  0.23810127    -0.75000
Ni23       Ni  0.41052361  0.87708623  0.23850562     1.25400
Ni24       Ni  0.34218884  0.88096548  0.23898354     1.25400
C25         C  0.38073507  0.95191293  0.23843400     0.87300
C26         C  0.37187741  0.80615032  0.23936034     0.87200
C27         C  0.37594805  0.87803224  0.14179852     0.87200
C28         C  0.37673895  0.87869044  0.33571406     0.87400
O29         O  0.34988922  0.00934450  0.98956213    -0.74900
O30         O  0.35280816  0.11919256  0.48915970    -0.75000
O31         O  0.35254403  0.06524794  0.41532842    -0.75000
O32         O  0.35208782  0.06477735  0.06219310    -0.75100
O33         O  0.41600172  0.06447198  0.06106557    -0.75000
O34         O  0.41645842  0.06371879  0.41617579    -0.75000
O35         O  0.41598493  0.11776730  0.98549931    -0.74900
O36         O  0.41459225  0.00831907  0.48914528    -0.75000
Ni37       Ni  0.34889535  0.06412872  0.98920719     1.25400
Ni38       Ni  0.41730914  0.06277411  0.98788444     1.25400
C39         C  0.38135080  0.99052806  0.98946612     0.87300
C40         C  0.38434880  0.13638881  0.98629972     0.87200
C41         C  0.38467241  0.06502153  0.39176935     0.87200
C42         C  0.38432019  0.06525945  0.08564205     0.87400
O43         O  0.35134308  0.01302700  0.23854239    -0.74900
O44         O  0.35443154  0.12249667  0.23897727    -0.75000
O45         O  0.35290212  0.06766972  0.16575968    -0.75000
O46         O  0.35302049  0.06751798  0.31173184    -0.75100
O47         O  0.41693360  0.06587526  0.31193182    -0.75000
O48         O  0.41681158  0.06612178  0.16559679    -0.75000
O49         O  0.41832755  0.12133708  0.23901833    -0.74900
O50         O  0.41524691  0.01102978  0.23854266    -0.75000
Ni51       Ni  0.35071346  0.06780687  0.23876273     1.25400
Ni52       Ni  0.41916457  0.06608478  0.23878918     1.25400
C53         C  0.38266812  0.99398632  0.23847865     0.87300
C54         C  0.38667974  0.14000875  0.23883090     0.87200
C55         C  0.38476453  0.06650310  0.14166013     0.87200
C56         C  0.38493938  0.06624331  0.33582059     0.87400
O57         O  0.92504489  0.51327575  0.00421877    -0.74900
O58         O  0.81405934  0.51479237  0.50921719    -0.75000
O59         O  0.86700003  0.51462003  0.43276225    -0.75000
O60         O  0.87161325  0.51433582  0.07967334    -0.75100
O61         O  0.87117272  0.57828330  0.07863371    -0.75000
O62         O  0.86855659  0.57853119  0.43331644    -0.75000
O63         O  0.81540903  0.57748641  0.00751238    -0.74900
O64         O  0.92447525  0.57743774  0.50484668    -0.75000
Ni65       Ni  0.86886605  0.51188824  0.50591633     1.25400
Ni66       Ni  0.86959856  0.58033045  0.50635991     1.25400
C67         C  0.94222335  0.54533687  0.50317001     0.87300
C68         C  0.79721421  0.54567541  0.01072516     0.87200
C69         C  0.86758667  0.54674428  0.40900082     0.87200
C70         C  0.87097815  0.54658910  0.10308962     0.87400
O71         O  0.92221680  0.51337929  0.25572335    -0.74900
O72         O  0.81190240  0.51798903  0.25502597    -0.75000
O73         O  0.86764049  0.51523960  0.18289886    -0.75000
O74         O  0.86663010  0.51518768  0.32869725    -0.75100
O75         O  0.86895804  0.57907955  0.32908276    -0.75000
O76         O  0.87002585  0.57915483  0.18274562    -0.75000
O77         O  0.81474518  0.58179262  0.25508432    -0.74900
O78         O  0.92405391  0.57729506  0.25600055    -0.75000
Ni79       Ni  0.86694983  0.51314228  0.25568645     1.25400
Ni80       Ni  0.86951291  0.58157080  0.25584320     1.25400
C81         C  0.94117134  0.54488833  0.25480061     0.87300
C82         C  0.79521225  0.55076908  0.25478614     0.87200
C83         C  0.86954058  0.54705130  0.15889843     0.87200
C84         C  0.86760824  0.54700293  0.35292641     0.87400
O85         O  0.00301455  0.57748908  0.99983485    -0.74900
O86         O  0.11199588  0.57816134  0.49888665    -0.75000
O87         O  0.05674724  0.57814295  0.42641939    -0.75000
O88         O  0.05798843  0.57807587  0.07216513    -0.75100
O89         O  0.05995009  0.51418479  0.07185905    -0.75000
O90         O  0.05637556  0.51420301  0.42563461    -0.75000
O91         O  0.11375454  0.51518047  0.99554523    -0.74900
O92         O  0.00255829  0.51333932  0.50043996    -0.75000
Ni93       Ni  0.05785411  0.58036996  0.99913937     1.25400
Ni94       Ni  0.05870440  0.51197935  0.99869460     1.25400
C95         C  0.98527216  0.54533284  0.00119508     0.87300
C96         C  0.13157403  0.54734068  0.99488732     0.87200
C97         C  0.05662742  0.54627492  0.40204857     0.87200
C98         C  0.05829813  0.54607661  0.09602915     0.87400
O99         O  0.00081438  0.57690624  0.25066151    -0.74900
O100        O  0.11021061  0.57977859  0.24766010    -0.75000
O101        O  0.05498742  0.57803808  0.17601527    -0.75000
O102        O  0.05636217  0.57838978  0.32218370    -0.75100
O103        O  0.05740215  0.51444134  0.32212046    -0.75000
O104        O  0.05664448  0.51411660  0.17606142    -0.75000
O105        O  0.11187832  0.51581911  0.24822412    -0.74900
O106        O  0.00173199  0.51297299  0.25039069    -0.75000
Ni107      Ni  0.05547819  0.58053025  0.24910886     1.25400
Ni108      Ni  0.05692883  0.51203281  0.24917156     1.25400
C109        C  0.98324156  0.54469371  0.25185128     0.87300
C110        C  0.12900340  0.54832622  0.24695414     0.87200
C111        C  0.05652415  0.54605858  0.15203085     0.87200
C112        C  0.05682489  0.54644171  0.34612611     0.87400
O113        O  0.52095574  0.00734284  0.00692999    -0.74900
O114        O  0.52507873  0.11745308  0.50795011    -0.75000
O115        O  0.52317210  0.06324695  0.43406782    -0.75000
O116        O  0.52152959  0.06346778  0.07934438    -0.75100
O117        O  0.58544974  0.06248086  0.07994733    -0.75000
O118        O  0.58709158  0.06206805  0.43366234    -0.75000
O119        O  0.58728544  0.11605520  0.00560359    -0.74900
O120        O  0.58623575  0.00645502  0.50604532    -0.75000
Ni121      Ni  0.52126693  0.06252416  0.50708912     1.25400
Ni122      Ni  0.58974436  0.06113327  0.50681494     1.25400
C123        C  0.55405173  0.98884195  0.50644341     0.87300
C124        C  0.55585425  0.13486579  0.00485230     0.87200
C125        C  0.55500217  0.06334906  0.40986582     0.87200
C126        C  0.55339944  0.06359201  0.10365379     0.87400
O127        O  0.52104835  0.01084613  0.25690111    -0.74900
O128        O  0.52299345  0.12104474  0.25743980    -0.75000
O129        O  0.52152182  0.06588197  0.18385818    -0.75000
O130        O  0.52248909  0.06562738  0.33017608    -0.75100
O131        O  0.58641121  0.06521283  0.32957136    -0.75000
O132        O  0.58543465  0.06476900  0.18351594    -0.75000
O133        O  0.58681052  0.12012984  0.25608037    -0.74900
O134        O  0.58498106  0.01040551  0.25681509    -0.75000
Ni135      Ni  0.51970654  0.06596835  0.25709702     1.25400
Ni136      Ni  0.58814353  0.06515666  0.25648699     1.25400
C137        C  0.55288913  0.99257366  0.25701867     0.87300
C138        C  0.55520893  0.13877146  0.25660499     0.87200
C139        C  0.55338295  0.06488218  0.15966795     0.87200
C140        C  0.55462078  0.06487561  0.35387964     0.87400
O141        O  0.58565581  0.92978888  0.00679085    -0.74900
O142        O  0.58999510  0.81985880  0.50786707    -0.73400
O143        O  0.58803564  0.87481733  0.43436232    -0.75000
O144        O  0.58740015  0.87646751  0.08104519    -0.75100
O145        O  0.52351870  0.87364260  0.08050152    -0.75000
O146        O  0.52411680  0.87345749  0.43431443    -0.75000
O147        O  0.52625975  0.81765643  0.00854223    -0.74900
O148        O  0.52262668  0.92797111  0.50768033    -0.75000
Ni149      Ni  0.59003296  0.87519727  0.00820319     1.25400
Ni150      Ni  0.52162541  0.87266318  0.00745578     1.25400
C151        C  0.55319748  0.94686563  0.00684299     0.87300
C152        C  0.55893298  0.80084865  0.01031936     0.87200
C153        C  0.55602309  0.87480615  0.41036660     0.87200
C154        C  0.55536424  0.87564658  0.10471333     0.87400
O155        O  0.58565134  0.93333441  0.25765956    -0.74900
O156        O  0.58988886  0.82408446  0.25707672    -0.75000
O157        O  0.58730669  0.87863010  0.18447033    -0.75000
O158        O  0.58776768  0.87818486  0.33046027    -0.75100
O159        O  0.52385407  0.87616174  0.33053602    -0.75000
O160        O  0.52340300  0.87610705  0.18453730    -0.75000
O161        O  0.52596364  0.82146812  0.25757899    -0.74900
O162        O  0.52173917  0.93151432  0.25746119    -0.75000
Ni163      Ni  0.58988132  0.87873920  0.25742135     1.25400
Ni164      Ni  0.52140572  0.87629939  0.25754000     1.25400
C165        C  0.55324435  0.95046699  0.25740995     0.87300
C166        C  0.55871243  0.80484437  0.25726399     0.87200
C167        C  0.55531852  0.87691794  0.16055960     0.87200
C168        C  0.55588491  0.87649152  0.35446189     0.87400
O169        O  0.37328449  0.42924409  0.03361209    -0.74900
O170        O  0.37423240  0.31938079  0.03189382    -0.75000
O171        O  0.42829860  0.37441592  0.03549021    -0.75000
O172        O  0.31881194  0.37430497  0.03033559    -0.75100
O173        O  0.31969625  0.37398997  0.45476499    -0.75000
O174        O  0.42960975  0.37564885  0.46022089    -0.75000
O175        O  0.37594353  0.32061662  0.45625955    -0.74900
O176        O  0.37384675  0.42989219  0.45757063    -0.75000
Ni177      Ni  0.37352431  0.37431972  0.03582892     1.25400
Ni178      Ni  0.37481443  0.37513880  0.45420801     1.25400
C179        C  0.37328748  0.44798301  0.50000959     0.87300
C180        C  0.37450962  0.30212666  0.49819837     0.87200
C181        C  0.44731795  0.37473647  0.99387117     0.87200
C182        C  0.30126564  0.37326946  0.98744695     0.87400
O183        O  0.42688875  0.38011953  0.20199024    -0.74900
O184        O  0.31709768  0.37811003  0.20076871    -0.75000
O185        O  0.37100590  0.43403456  0.20198356    -0.75000
O186        O  0.37397277  0.32448074  0.20047119    -0.75100
O187        O  0.37178811  0.32358210  0.28516437    -0.75000
O188        O  0.37147300  0.43369864  0.28701406    -0.75000
O189        O  0.31683050  0.37884167  0.28571135    -0.74900
O190        O  0.42628568  0.37854147  0.28701300    -0.75000
Ni191      Ni  0.37213555  0.37923843  0.19827664     1.25400
Ni192      Ni  0.37152881  0.37864414  0.28926235     1.25400
C193        C  0.44454037  0.37894025  0.24476974     0.87300
C194        C  0.29888192  0.37859714  0.24314672     0.87200
C195        C  0.37105788  0.45190602  0.24461168     0.87200
C196        C  0.37419654  0.30583891  0.24244585     0.87400
O197        O  0.42374521  0.56467821  0.03940048    -0.74900
O198        O  0.31419087  0.55959688  0.03005713    -0.75000
O199        O  0.37126891  0.50748261  0.03431776    -0.75000
O200        O  0.36613048  0.61738246  0.03407445    -0.75100
O201        O  0.37094150  0.61712917  0.45224037    -0.75000
O202        O  0.37313538  0.50733893  0.45628017    -0.75000
O203        O  0.31672588  0.56022588  0.44924777    -0.74900
O204        O  0.42670180  0.56342864  0.45944768    -0.75000
Ni205      Ni  0.36872630  0.56238854  0.03743805     1.25400
Ni206      Ni  0.37197184  0.56207837  0.45128804     1.25400
C207        C  0.44268885  0.56489835  0.50344537     0.87300
C208        C  0.29671158  0.55866712  0.49015386     0.87200
C209        C  0.37280516  0.48956683  0.99171612     0.87200
C210        C  0.36897784  0.63590162  0.99209664     0.87400
O211        O  0.37112899  0.51166833  0.20183018    -0.74900
O212        O  0.36577738  0.62140219  0.19991702    -0.75000
O213        O  0.42349839  0.56910186  0.20252675    -0.75000
O214        O  0.31357762  0.56278963  0.19972063    -0.75100
O215        O  0.31256819  0.56573400  0.28411697    -0.75000
O216        O  0.42238167  0.56880130  0.28750130    -0.75000
O217        O  0.36575994  0.62217564  0.28478448    -0.74900
O218        O  0.36886701  0.51235379  0.28677521    -0.75000
Ni219      Ni  0.36852681  0.56637072  0.19796062     1.25400
Ni220      Ni  0.36734433  0.56737592  0.28879156     1.25400
C221        C  0.37040239  0.49397385  0.24454592     0.87300
C222        C  0.36552478  0.63993559  0.24210832     0.87200
C223        C  0.44105558  0.56912286  0.24552231     0.87200
C224        C  0.29479551  0.56230878  0.24161621     0.87400
O225        O  0.50612139  0.37326773  0.03951821    -0.74900
O226        O  0.61609820  0.37215776  0.04446800    -0.75000
O227        O  0.56094508  0.42752521  0.04457718    -0.75000
O228        O  0.56050023  0.31811875  0.04060860    -0.75100
O229        O  0.56472963  0.31949654  0.46501680    -0.75000
O230        O  0.55916241  0.42912449  0.46703248    -0.75000
O231        O  0.61648319  0.37750486  0.46764033    -0.74900
O232        O  0.50726980  0.37213741  0.46391406    -0.75000
Ni233      Ni  0.56092152  0.37270289  0.04531670     1.25400
Ni234      Ni  0.56199047  0.37447944  0.46294101     1.25400
C235        C  0.48843141  0.37296526  0.50567206     0.87300
C236        C  0.63451806  0.37588659  0.51003726     0.87200
C237        C  0.56025533  0.44649617  0.00287015     0.87200
C238        C  0.56263650  0.30063392  0.99785255     0.87400
O239        O  0.55812686  0.43272449  0.20186550    -0.74900
O240        O  0.56047474  0.32253513  0.20695425    -0.75000
O241        O  0.50471159  0.37678480  0.20329199    -0.75000
O242        O  0.61430269  0.37904893  0.20510602    -0.75100
O243        O  0.61375221  0.38065455  0.29006947    -0.75000
O244        O  0.50401297  0.37873801  0.28831266    -0.75000
O245        O  0.55929160  0.32463559  0.29177155    -0.74900
O246        O  0.55761076  0.43405963  0.28688968    -0.75000
Ni247      Ni  0.55949822  0.37759346  0.20123790     1.25400
Ni248      Ni  0.55874255  0.37953573  0.29224751     1.25400
C249        C  0.55699616  0.45138241  0.24391537     0.87300
C250        C  0.55964413  0.30539699  0.25020062     0.87200
C251        C  0.48640925  0.37805120  0.24548042     0.87200
C252        C  0.63207843  0.38067883  0.24779496     0.87400
O253        O  0.55553070  0.50512653  0.04834189    -0.74900
O254        O  0.55955831  0.61482825  0.05526582    -0.75000
O255        O  0.50214070  0.56221884  0.04667415    -0.75000
O256        O  0.61194266  0.55724392  0.05680699    -0.75100
O257        O  0.61399244  0.55985190  0.47237507    -0.75000
O258        O  0.50445904  0.56331479  0.46570715    -0.75000
O259        O  0.56067703  0.61659822  0.47025173    -0.74900
O260        O  0.55803475  0.50688775  0.46840009    -0.75000
Ni261      Ni  0.55701376  0.55983982  0.05480881     1.25400
Ni262      Ni  0.55934493  0.56174138  0.46620326     1.25400
C263        C  0.55679881  0.48854851  0.51063017     0.87300
C264        C  0.56061172  0.63437218  0.51301656     0.87200
C265        C  0.48613227  0.56355656  0.00263834     0.87200
C266        C  0.63190436  0.55737636  0.01589817     0.87400
O267        O  0.50177238  0.56841777  0.20447965    -0.74900
O268        O  0.61164321  0.56676312  0.20638908    -0.75000
O269        O  0.55627663  0.51239764  0.20235724    -0.75000
O270        O  0.55738955  0.62251108  0.20969311    -0.75100
O271        O  0.55962936  0.61916634  0.29408886    -0.75000
O272        O  0.55362962  0.51034346  0.28725825    -0.75000
O273        O  0.61096749  0.56154240  0.29095503    -0.74900
O274        O  0.50106674  0.56770759  0.28944117    -0.75000
Ni275      Ni  0.55673064  0.56765204  0.20262558     1.25400
Ni276      Ni  0.55615320  0.56463737  0.29339173     1.25400
C277        C  0.48330589  0.56863084  0.24659291     0.87300
C278        C  0.62943520  0.56315952  0.24885438     0.87200
C279        C  0.55536052  0.49336470  0.24414026     0.87200
C280        C  0.55955994  0.63907109  0.25329724     0.87400
O281        O  0.00840355  0.41846879  0.99968797    -0.74900
O282        O  0.11740845  0.41496495  0.49763559    -0.75000
O283        O  0.06159406  0.41727331  0.42582186    -0.75000
O284        O  0.06422174  0.41633072  0.07155924    -0.75100
O285        O  0.06100022  0.35246820  0.07201832    -0.75000
O286        O  0.05954038  0.35334862  0.42574405    -0.75000
O287        O  0.11531953  0.34904207  0.99785191    -0.74900
O288        O  0.00535738  0.35549742  0.49929767    -0.75000
Ni289      Ni  0.06251255  0.41955908  0.49883052     1.25400
Ni290      Ni  0.05996422  0.35109983  0.49875526     1.25400
C291        C  0.98832883  0.38798764  0.49968073     0.87300
C292        C  0.13496724  0.37997997  0.99619765     0.87200
C293        C  0.06037912  0.38531536  0.40180898     0.87200
C294        C  0.06215694  0.38457599  0.09579816     0.87400
O295        O  0.00575098  0.41881271  0.24843261    -0.74900
O296        O  0.11562465  0.41529982  0.25010628    -0.75000
O297        O  0.06158672  0.41693124  0.17580399    -0.75000
O298        O  0.06034322  0.41725938  0.32197490    -0.75100
O299        O  0.05950919  0.35331793  0.32183504    -0.75000
O300        O  0.05869182  0.35306035  0.17580494    -0.75000
O301        O  0.11371835  0.35156834  0.24776250    -0.74900
O302        O  0.00409877  0.35489922  0.24954719    -0.75000
Ni303      Ni  0.06084608  0.41937245  0.24901217     1.25400
Ni304      Ni  0.05887110  0.35095542  0.24877783     1.25400
C305        C  0.98687019  0.38730716  0.24945168     0.87300
C306        C  0.13283607  0.38289235  0.24856627     0.87200
C307        C  0.06078030  0.38490416  0.15179629     0.87200
C308        C  0.06003710  0.38528515  0.34588363     0.87400
O309        O  0.92945109  0.35551732  0.00119569    -0.74900
O310        O  0.81899323  0.35489756  0.50086285    -0.75000
O311        O  0.87310207  0.35660221  0.42734484    -0.75000
O312        O  0.87443421  0.35457840  0.07397893    -0.75100
O313        O  0.87352120  0.41852667  0.07359554    -0.75000
O314        O  0.87192922  0.42053398  0.42822591    -0.75000
O315        O  0.81840769  0.41651353  0.00097621    -0.74900
O316        O  0.92805163  0.42047335  0.50037753    -0.75000
Ni317      Ni  0.87488958  0.35197082  0.00085539     1.25400
Ni318      Ni  0.87342550  0.42047241  0.00068072     1.25400
C319        C  0.94710628  0.38766174  0.00067561     0.87300
C320        C  0.80135778  0.38392498  0.00074132     0.87200
C321        C  0.87219791  0.38872176  0.40377300     0.87200
C322        C  0.87357907  0.38667380  0.09775622     0.87400
O323        O  0.92655707  0.35607607  0.25076760    -0.74900
O324        O  0.81689470  0.35602055  0.25151209    -0.75000
O325        O  0.87167363  0.35537737  0.17808946    -0.75000
O326        O  0.87203398  0.35667965  0.32404203    -0.75100
O327        O  0.87101365  0.42059584  0.32340252    -0.75000
O328        O  0.87257742  0.41930863  0.17718039    -0.75000
O329        O  0.81658777  0.41969022  0.24845464    -0.74900
O330        O  0.92681704  0.42001590  0.25103945    -0.75000
Ni331      Ni  0.87175030  0.35381483  0.25116081     1.25400
Ni332      Ni  0.87170728  0.42222625  0.25010594     1.25400
C333        C  0.94474900  0.38795610  0.25051296     0.87300
C334        C  0.79846384  0.38769980  0.24933789     0.87200
C335        C  0.87255038  0.38712304  0.15366350     0.87200
C336        C  0.87164813  0.38877577  0.34774634     0.87400
C337        C  0.69334709  0.41318680  0.27307219    -0.02300
C338        C  0.67444100  0.38279815  0.24804682     0.07300
C339        C  0.69606023  0.35490307  0.22209560    -0.02500
C340        C  0.73631203  0.35751584  0.22054701    -0.02500
C341        C  0.75567494  0.38692002  0.24768403     0.07500
C342        C  0.73372184  0.41481605  0.27389356    -0.02700
Br343      Br  0.75815955  0.45451693  0.31339996    -0.01200
Br344      Br  0.66385016  0.45369543  0.30446258    -0.01300
Br345      Br  0.76403664  0.32177080  0.17801851    -0.01200
Br346      Br  0.67053970  0.31179111  0.19057237    -0.01200
C347        C  0.73788439  0.36881525  0.46322232    -0.02300
C348        C  0.75915999  0.38201904  0.00124105     0.07300
C349        C  0.73871375  0.39519401  0.04384200    -0.02500
C350        C  0.69842150  0.39252841  0.04511306    -0.02500
C351        C  0.67815892  0.37559561  0.00380971     0.07500
C352        C  0.69795744  0.36388110  0.46644276    -0.02700
Br353      Br  0.67303280  0.33534525  0.41258530    -0.01200
Br354      Br  0.76489783  0.35436918  0.40184479    -0.01300
Br355      Br  0.67215691  0.41318635  0.10365058    -0.01200
Br356      Br  0.76655540  0.41510977  0.10165117    -0.01200
C357        C  0.23606476  0.35281490  0.27382431    -0.02300
C358        C  0.25646814  0.37910496  0.24336682     0.07300
C359        C  0.23624568  0.40663642  0.21465221    -0.02500
C360        C  0.19592679  0.40770766  0.21616294    -0.02500
C361        C  0.17538431  0.38161978  0.24703199     0.07500
C362        C  0.19577507  0.35410233  0.27586485    -0.02700
Br363      Br  0.16919877  0.31885860  0.32031147    -0.01200
Br364      Br  0.26319410  0.31388106  0.31171465    -0.01300
Br365      Br  0.16920115  0.44417799  0.17383040    -0.01200
Br366      Br  0.26364299  0.44448498  0.17518276    -0.01200
C367        C  0.19703512  0.39587942  0.45565859    -0.02300
C368        C  0.17726050  0.37741811  0.99289225     0.07300
C369        C  0.19798295  0.35698158  0.02999710    -0.02500
C370        C  0.23812300  0.35395622  0.02654176    -0.02500
C371        C  0.25838588  0.37267140  0.98690487     0.07500
C372        C  0.23740684  0.39418021  0.45499398    -0.02700
Br373      Br  0.26400572  0.41861632  0.39925832    -0.01200
Br374      Br  0.16960318  0.41813671  0.39901449    -0.01300
Br375      Br  0.26431920  0.32138266  0.07464401    -0.01200
Br376      Br  0.17143724  0.33393185  0.08685833    -0.01200
C377        C  0.54599203  0.74222824  0.29920051    -0.02300
C378        C  0.56070974  0.76274153  0.25757017     0.07300
C379        C  0.57883866  0.74314752  0.21745083    -0.02500
C380        C  0.57989187  0.70285680  0.21717941    -0.02500
C381        C  0.56188917  0.68170931  0.25658651     0.07500
C382        C  0.54650445  0.70189043  0.29903750    -0.02700
Br383      Br  0.52643352  0.67580904  0.35830565    -0.01200
Br384      Br  0.52754132  0.76985196  0.35819180    -0.01300
Br385      Br  0.60957797  0.67762023  0.16495596    -0.01200
Br386      Br  0.60230137  0.77162009  0.16253356    -0.01200
C387        C  0.58735487  0.69740937  0.98298776    -0.02300
C388        C  0.56270386  0.67698771  0.01598087     0.07300
C389        C  0.53732286  0.69783428  0.54660594    -0.02500
C390        C  0.53699270  0.73818683  0.54524127    -0.02500
C391        C  0.56088768  0.75832492  0.01299187     0.07500
C392        C  0.58624008  0.73775424  0.98117770    -0.02700
Br393      Br  0.61903823  0.76438622  0.93358086    -0.01200
Br394      Br  0.62468313  0.67053018  0.94202878    -0.01300
Br395      Br  0.50654482  0.76595277  0.59437509    -0.01200
Br396      Br  0.50342227  0.67164686  0.59312174    -0.01200
C397        C  0.58051872  0.20199952  0.28880868    -0.02300
C398        C  0.55600561  0.18140894  0.25570309     0.07300
C399        C  0.53251115  0.20177471  0.22126532    -0.02500
C400        C  0.53293654  0.24216448  0.22053387    -0.02500
C401        C  0.55843369  0.26276005  0.25227812     0.07500
C402        C  0.58208688  0.24237495  0.28664786    -0.02700
Br403      Br  0.61786092  0.26930027  0.32998928    -0.01200
Br404      Br  0.61112221  0.17522375  0.33884419    -0.01300
Br405      Br  0.49627390  0.26902018  0.17850150    -0.01200
Br406      Br  0.50129352  0.17450266  0.17249769    -0.01200
C407        C  0.58453477  0.23762284  0.03338331    -0.02300
C408        C  0.56224767  0.25809741  0.99760714     0.07300
C409        C  0.54187002  0.23780476  0.46817239    -0.02500
C410        C  0.54074607  0.19747971  0.46866634    -0.02500
C411        C  0.55740369  0.17722282  0.00298052     0.07500
C412        C  0.58106087  0.19755646  0.03728039    -0.02700
Br413      Br  0.60729751  0.17093944  0.09163557    -0.01200
Br414      Br  0.62191288  0.26389422  0.07509312    -0.01300
Br415      Br  0.51587428  0.17008419  0.41386311    -0.01200
Br416      Br  0.51335465  0.26457111  0.41615183    -0.01200
C417        C  0.23360220  0.53938961  0.28364213    -0.02300
C418        C  0.25214854  0.55706054  0.24144159     0.07300
C419        C  0.22934557  0.56919564  0.19944447    -0.02500
C420        C  0.18912546  0.56572883  0.20124268    -0.02500
C421        C  0.17116823  0.54988327  0.24426844     0.07500
C422        C  0.19337793  0.53635404  0.28505283    -0.02700
Br423      Br  0.16818118  0.51500448  0.34404422    -0.01200
Br424      Br  0.26220341  0.51658945  0.33905741    -0.01300
Br425      Br  0.15822887  0.58197477  0.14393013    -0.01200
Br426      Br  0.25159815  0.59107624  0.13866391    -0.01200
C427        C  0.19194496  0.57883320  0.96183068    -0.02300
C428        C  0.17429566  0.54858062  0.98927065     0.07300
C429        C  0.19650171  0.52088133  0.51725099    -0.02500
C430        C  0.23678181  0.52378679  0.51518953    -0.02500
C431        C  0.25552684  0.55455306  0.98417184     0.07500
C432        C  0.23221227  0.58229820  0.96068380    -0.02700
Br433      Br  0.25520250  0.62640989  0.92925088    -0.01200
Br434      Br  0.16173496  0.61446655  0.92214018    -0.01300
Br435      Br  0.26793664  0.48542813  0.54844389    -0.01200
Br436      Br  0.17395978  0.48070925  0.55766064    -0.01200
C437        C  0.73152541  0.53328194  0.21642293    -0.02300
C438        C  0.75275532  0.55326081  0.25375679     0.07300
C439        C  0.73337864  0.57721182  0.28861754    -0.02500
C440        C  0.69333213  0.58163041  0.28554155    -0.02500
C441        C  0.67190444  0.56047258  0.24949489     0.07500
C442        C  0.69125939  0.53617168  0.21494632    -0.02700
Br443      Br  0.66288715  0.50546156  0.16661509    -0.01200
Br444      Br  0.75769519  0.50377949  0.16511185    -0.01300
Br445      Br  0.66839676  0.61902385  0.32844672    -0.01200
Br446      Br  0.76129977  0.60294556  0.34231913    -0.01200
C447        C  0.73095062  0.52166933  0.48635914    -0.02300
C448        C  0.75481256  0.54616003  0.01576329     0.07300
C449        C  0.73699526  0.57287575  0.04868870    -0.02500
C450        C  0.69676460  0.57610086  0.04973846    -0.02500
C451        C  0.67398142  0.55226207  0.01859266     0.07500
C452        C  0.69072165  0.52406237  0.48843686    -0.02700
Br453      Br  0.66001766  0.48616481  0.45328146    -0.01200
Br454      Br  0.75405990  0.48353354  0.44298228    -0.01300
Br455      Br  0.67318639  0.61412683  0.09278961    -0.01200
Br456      Br  0.76730877  0.60368505  0.09498525    -0.01200
C457        C  0.40542223  0.20393310  0.27585919    -0.02300
C458        C  0.38660228  0.18246286  0.23777613     0.07300
C459        C  0.36516188  0.20158662  0.20009737    -0.02500
C460        C  0.36010876  0.24154092  0.20251887    -0.02500
C461        C  0.37825927  0.26330511  0.24122505     0.07500
C462        C  0.40185072  0.24421431  0.27714370    -0.02700
Br463      Br  0.43111420  0.27281753  0.32688405    -0.01200
Br464      Br  0.43498601  0.17810023  0.32752544    -0.01300
Br465      Br  0.32616015  0.26533808  0.15394496    -0.01200
Br466      Br  0.34415174  0.17308484  0.14328173    -0.01200
C467        C  0.35558741  0.19829523  0.95641410    -0.02300
C468        C  0.38427818  0.17890819  0.98454433     0.07300
C469        C  0.40650973  0.20005123  0.52519453    -0.02500
C470        C  0.40325731  0.24021400  0.52814227    -0.02500
C471        C  0.37912107  0.25966883  0.98798460     0.07500
C472        C  0.35231437  0.23835615  0.95959747    -0.02700
Br473      Br  0.30964153  0.26391238  0.92733449    -0.01200
Br474      Br  0.32197089  0.17079396  0.91047379    -0.01300
Br475      Br  0.43643424  0.26837921  0.57355641    -0.01200
Br476      Br  0.44017606  0.17357323  0.57143700    -0.01200
C477        C  0.34206136  0.74395430  0.21057833    -0.02300
C478        C  0.36949559  0.76366882  0.24049513     0.07300
C479        C  0.39479446  0.74249978  0.27170695    -0.02500
C480        C  0.39365428  0.70220195  0.27158061    -0.02500
C481        C  0.36628367  0.68248286  0.24182784     0.07500
C482        C  0.34017620  0.70360740  0.21186446    -0.02700
Br483      Br  0.30047629  0.67764277  0.17417890    -0.01200
Br484      Br  0.30785412  0.77163928  0.16574191    -0.01300
Br485      Br  0.43108741  0.67411239  0.31069571    -0.01200
Br486      Br  0.42970039  0.76834830  0.31748645    -0.01200
C487        C  0.38162235  0.70003588  0.03539777    -0.02300
C488        C  0.36870084  0.67898987  0.99206820     0.07300
C489        C  0.35517713  0.69986466  0.44834478    -0.02500
C490        C  0.35591530  0.74031305  0.44746148    -0.02500
C491        C  0.37042919  0.76047450  0.99090981     0.07500
C492        C  0.38285024  0.74042383  0.03426569    -0.02700
Br493      Br  0.40062356  0.76888760  0.09298865    -0.01200
Br494      Br  0.39933180  0.67500262  0.09677519    -0.01300
Br495      Br  0.33731111  0.76790085  0.38852115    -0.01200
Br496      Br  0.33580901  0.67392715  0.38855523    -0.01200
O497        O  0.41154837  0.92946238  0.48928226    -0.74900
O498        O  0.40530037  0.81920775  0.99008985    -0.75000
O499        O  0.40840569  0.87351656  0.91615121    -0.75000
O500        O  0.40841638  0.87406744  0.56176874    -0.75100
O501        O  0.34454556  0.87687986  0.56151785    -0.75000
O502        O  0.34455818  0.87680486  0.91563099    -0.75000
O503        O  0.34165923  0.82284803  0.48723451    -0.74900
O504        O  0.34702672  0.93189514  0.98856625    -0.75000
Ni505      Ni  0.41039115  0.87400946  0.98926621     1.25400
Ni506      Ni  0.34196664  0.87722864  0.98866997     1.25400
C507        C  0.37978540  0.94848322  0.98893254     0.87300
C508        C  0.37265541  0.80323285  0.48773551     0.87200
C509        C  0.37655974  0.87509341  0.89188144     0.87200
C510        C  0.37645080  0.87524835  0.58565391     0.87400
O511        O  0.41082760  0.92858591  0.73908048    -0.74900
O512        O  0.40603601  0.81871916  0.73811289    -0.75000
O513        O  0.40841609  0.87386958  0.66567463    -0.75000
O514        O  0.40855130  0.87338157  0.81186735    -0.75100
O515        O  0.34471333  0.87667947  0.81183928    -0.75000
O516        O  0.34451781  0.87566279  0.66569698    -0.75000
O517        O  0.34230931  0.82135704  0.73980259    -0.74900
O518        O  0.34693818  0.93096752  0.73819505    -0.75000
Ni519      Ni  0.41074093  0.87353610  0.73870576     1.25400
Ni520      Ni  0.34235830  0.87626053  0.73883448     1.25400
C521        C  0.37956374  0.94780577  0.73857333     0.87300
C522        C  0.37338905  0.80188280  0.73921836     0.87200
C523        C  0.37643983  0.87485079  0.64166973     0.87200
C524        C  0.37664483  0.87502380  0.83586853     0.87400
O525        O  0.35067833  0.00985472  0.48780241    -0.74900
O526        O  0.35227757  0.11871203  0.98877466    -0.75000
O527        O  0.35032987  0.06367595  0.91602250    -0.75000
O528        O  0.35128642  0.06409199  0.56134392    -0.75100
O529        O  0.41522045  0.06332449  0.56224645    -0.75000
O530        O  0.41421947  0.06145120  0.91507848    -0.75000
O531        O  0.41668410  0.11846847  0.48919730    -0.74900
O532        O  0.41380818  0.00777242  0.98962155    -0.75000
Ni533      Ni  0.34959890  0.06461031  0.48833074     1.25400
Ni534      Ni  0.41806427  0.06338333  0.48924197     1.25400
C535        C  0.38213441  0.99105402  0.48871300     0.87300
C536        C  0.38491291  0.13690474  0.48913468     0.87200
C537        C  0.38205857  0.06252416  0.89157190     0.87200
C538        C  0.38308323  0.06354951  0.58576660     0.87400
O539        O  0.34924908  0.00849974  0.73824379    -0.74900
O540        O  0.35087273  0.11801613  0.73838354    -0.75000
O541        O  0.35059356  0.06336962  0.66529381    -0.75000
O542        O  0.34989382  0.06323481  0.81149975    -0.75100
O543        O  0.41382783  0.06220953  0.81183368    -0.75000
O544        O  0.41453154  0.06254965  0.66600378    -0.75000
O545        O  0.41480383  0.11740132  0.73906441    -0.74900
O546        O  0.41317893  0.00730678  0.73871137    -0.75000
Ni547      Ni  0.34788752  0.06330413  0.73834580     1.25400
Ni548      Ni  0.41637879  0.06232870  0.73895046     1.25400
C549        C  0.38083127  0.98986938  0.73848473     0.87300
C550        C  0.38298604  0.13574182  0.73845705     0.87200
C551        C  0.38270357  0.06313452  0.64168056     0.87200
C552        C  0.38183878  0.06262272  0.83564256     0.87400
O553        O  0.92386648  0.51350987  0.50333176    -0.74900
O554        O  0.81523709  0.51371147  0.01005666    -0.75000
O555        O  0.86824639  0.51281195  0.93355007    -0.75000
O556        O  0.87049559  0.51376703  0.57888610    -0.75100
O557        O  0.87034838  0.57771183  0.57937655    -0.75000
O558        O  0.86913002  0.57673683  0.93276891    -0.75000
O559        O  0.81474483  0.57857244  0.50785944    -0.74900
O560        O  0.92517661  0.57721640  0.00404637    -0.75000
Ni561      Ni  0.87007090  0.51124235  0.00680032     1.25400
Ni562      Ni  0.87026870  0.57969309  0.00565197     1.25400
C563        C  0.94316237  0.54524900  0.00323178     0.87300
C564        C  0.79627587  0.54688618  0.51023254     0.87200
C565        C  0.86853311  0.54463287  0.90913602     0.87200
C566        C  0.87007959  0.54569286  0.60310481     0.87400
O567        O  0.92301559  0.51216670  0.75524405    -0.74900
O568        O  0.81287733  0.51435401  0.75564771    -0.75000
O569        O  0.86808544  0.51342662  0.68266868    -0.75000
O570        O  0.86791353  0.51268158  0.82882253    -0.75100
O571        O  0.86938977  0.57660624  0.82932363    -0.75000
O572        O  0.86885417  0.57737603  0.68326748    -0.75000
O573        O  0.81427662  0.57826164  0.75695530    -0.74900
O574        O  0.92381862  0.57610944  0.75545807    -0.75000
Ni575      Ni  0.86789095  0.51084183  0.75563262     1.25400
Ni576      Ni  0.86910859  0.57932773  0.75631519     1.25400
C577        C  0.94144803  0.54395526  0.75432833     0.87300
C578        C  0.79553300  0.54673067  0.75671263     0.87200
C579        C  0.86897798  0.54545263  0.65900458     0.87200
C580        C  0.86853894  0.54454141  0.85309543     0.87400
O581        O  0.00223075  0.57727736  0.50020108    -0.74900
O582        O  0.11283292  0.57879940  0.99837121    -0.75000
O583        O  0.05747993  0.57808736  0.92602931    -0.75000
O584        O  0.05727213  0.57719150  0.57248703    -0.75100
O585        O  0.05873528  0.51328005  0.57169291    -0.75000
O586        O  0.05712785  0.51414529  0.92586590    -0.75000
O587        O  0.11268931  0.51446159  0.49596114    -0.74900
O588        O  0.00364350  0.51355892  0.00096217    -0.75000
Ni589      Ni  0.05707224  0.57994146  0.49954673     1.25400
Ni590      Ni  0.05763630  0.51152269  0.49850242     1.25400
C591        C  0.98433621  0.54521916  0.50111000     0.87300
C592        C  0.13056992  0.54659019  0.49577645     0.87200
C593        C  0.05725967  0.54609377  0.90198102     0.87200
C594        C  0.05755998  0.54506376  0.59609641     0.87400
O595        O  0.00110263  0.57626598  0.75057796    -0.74900
O596        O  0.11067037  0.57858198  0.74742283    -0.75000
O597        O  0.05515196  0.57698311  0.67597864    -0.75000
O598        O  0.05685434  0.57779155  0.82195428    -0.75100
O599        O  0.05753337  0.51383453  0.82231345    -0.75000
O600        O  0.05670528  0.51305509  0.67619198    -0.75000
O601        O  0.11197166  0.51462345  0.74856413    -0.74900
O602        O  0.00196385  0.51232539  0.75042419    -0.75000
Ni603      Ni  0.05585557  0.57966136  0.74895181     1.25400
Ni604      Ni  0.05705672  0.51115521  0.74935380     1.25400
C605        C  0.98350562  0.54405603  0.75165684     0.87300
C606        C  0.12929461  0.54700379  0.74718690     0.87200
C607        C  0.05638217  0.54499493  0.65208497     0.87200
C608        C  0.05721947  0.54592635  0.84609239     0.87400
O609        O  0.52230971  0.00733118  0.50644236    -0.74900
O610        O  0.52341795  0.11754951  0.00526166    -0.75000
O611        O  0.52243605  0.06181605  0.93324827    -0.75000
O612        O  0.52369818  0.06203114  0.58000220    -0.75100
O613        O  0.58762502  0.06062778  0.57992641    -0.75000
O614        O  0.58636950  0.06059236  0.93395748    -0.75000
O615        O  0.58899862  0.11586224  0.50779825    -0.74900
O616        O  0.58488420  0.00670960  0.00778405    -0.75000
Ni617      Ni  0.51975388  0.06255676  0.00620878     1.25400
Ni618      Ni  0.58821970  0.06136042  0.00692778     1.25400
C619        C  0.55277310  0.98897439  0.00720218     0.87300
C620        C  0.55756014  0.13466712  0.50812563     0.87200
C621        C  0.55452848  0.06116026  0.90965204     0.87200
C622        C  0.55569041  0.06136706  0.60394229     0.87400
O623        O  0.52250481  0.00679321  0.75592622    -0.74900
O624        O  0.52429592  0.11684500  0.75794107    -0.75000
O625        O  0.52361895  0.06234215  0.68367106    -0.75000
O626        O  0.52293200  0.06129354  0.82957618    -0.75100
O627        O  0.58687403  0.06135987  0.83009895    -0.75000
O628        O  0.58753520  0.06088662  0.68405057    -0.75000
O629        O  0.58807779  0.11604265  0.75669442    -0.74900
O630        O  0.58643817  0.00639000  0.75729366    -0.75000
Ni631      Ni  0.52104653  0.06187007  0.75669086     1.25400
Ni632      Ni  0.58949368  0.06114109  0.75707605     1.25400
C633        C  0.55435573  0.98855406  0.75667079     0.87300
C634        C  0.55646366  0.13463348  0.75746689     0.87200
C635        C  0.55563134  0.06153471  0.65987858     0.87200
C636        C  0.55480349  0.06123633  0.85378754     0.87400
O637        O  0.58654414  0.92939606  0.50722031    -0.74900
O638        O  0.59002619  0.82032944  0.01019488    -0.73400
O639        O  0.58814036  0.87400462  0.93508722    -0.75000
O640        O  0.58828333  0.87469774  0.58050621    -0.75100
O641        O  0.52439591  0.87245277  0.58042424    -0.75000
O642        O  0.52424207  0.87212162  0.93442082    -0.75000
O643        O  0.52619854  0.81781488  0.50677655    -0.74900
O644        O  0.52174853  0.92785146  0.00671932    -0.75000
Ni645      Ni  0.59044978  0.87473544  0.50744619     1.25400
Ni646      Ni  0.52202578  0.87280228  0.50730525     1.25400
C647        C  0.55422166  0.94673159  0.50712360     0.87300
C648        C  0.55871523  0.80069167  0.50785959     0.87200
C649        C  0.55629235  0.87314909  0.91074129     0.87200
C650        C  0.55636867  0.87342797  0.60448610     0.87400
O651        O  0.58696145  0.92920196  0.75744886    -0.74900
O652        O  0.59041237  0.81984401  0.75811000    -0.75000
O653        O  0.58844290  0.87428892  0.68458203    -0.75000
O654        O  0.58846145  0.87459533  0.83086756    -0.75100
O655        O  0.52454332  0.87297329  0.83058235    -0.75000
O656        O  0.52454364  0.87214206  0.68450053    -0.75000
O657        O  0.52647859  0.81766812  0.75842705    -0.74900
O658        O  0.52303769  0.92770291  0.75693924    -0.75000
Ni659      Ni  0.59081763  0.87457582  0.75773201     1.25400
Ni660      Ni  0.52234367  0.87255834  0.75757017     1.25400
C661        C  0.55463242  0.94648193  0.75699014     0.87300
C662        C  0.55909751  0.80079997  0.75877547     0.87200
C663        C  0.55646365  0.87322689  0.66051979     0.87200
C664        C  0.55647059  0.87357076  0.85473240     0.87400
O665        O  0.37324815  0.42999218  0.54257749    -0.74900
O666        O  0.37179266  0.31980068  0.54096920    -0.75000
O667        O  0.42729834  0.37384320  0.54515870    -0.75000
O668        O  0.31780656  0.37620953  0.53927246    -0.75100
O669        O  0.32034312  0.37303904  0.94573305    -0.75000
O670        O  0.43035670  0.37583773  0.95051209    -0.75000
O671        O  0.37705809  0.32014172  0.94695004    -0.74900
O672        O  0.37409921  0.42967789  0.94860578    -0.75000
Ni673      Ni  0.37243299  0.37492117  0.54506005     1.25400
Ni674      Ni  0.37548838  0.37479310  0.94488998     1.25400
C675        C  0.37346609  0.44749782  0.99129939     0.87300
C676        C  0.37656737  0.30179981  0.98910326     0.87200
C677        C  0.44645242  0.37414219  0.50362849     0.87200
C678        C  0.30043788  0.37521024  0.49629632     0.87400
O679        O  0.42836144  0.37573562  0.70396646    -0.74900
O680        O  0.31830348  0.37528570  0.70399393    -0.75000
O681        O  0.37285838  0.43017864  0.70552675    -0.75000
O682        O  0.37446327  0.32089753  0.70115702    -0.75100
O683        O  0.37276443  0.31892096  0.78578644    -0.75000
O684        O  0.37355549  0.42909104  0.79054849    -0.75000
O685        O  0.31869223  0.37469484  0.78897988    -0.74900
O686        O  0.42799087  0.37330945  0.78893677    -0.75000
Ni687      Ni  0.37341443  0.37559759  0.70063262     1.25400
Ni688      Ni  0.37327228  0.37391132  0.79159667     1.25400
C689        C  0.44616546  0.37403124  0.74667181     0.87300
C690        C  0.30046678  0.37552904  0.74671625     0.87200
C691        C  0.37277854  0.44765558  0.74839395     0.87200
C692        C  0.37451347  0.30169231  0.74259339     0.87400
O693        O  0.42249206  0.56630706  0.54413555    -0.74900
O694        O  0.31284018  0.56053237  0.53398282    -0.75000
O695        O  0.37026564  0.50880872  0.54118888    -0.75000
O696        O  0.36461575  0.61867797  0.53622251    -0.75100
O697        O  0.37244778  0.61755000  0.95008248    -0.75000
O698        O  0.37359700  0.50773274  0.94935638    -0.75000
O699        O  0.31760461  0.56147778  0.94527326    -0.74900
O700        O  0.42789968  0.56334536  0.95464746    -0.75000
Ni701      Ni  0.36740030  0.56378378  0.54187634     1.25400
Ni702      Ni  0.37298760  0.56262092  0.94679134     1.25400
C703        C  0.44392679  0.56408514  0.99868686     0.87300
C704        C  0.29783128  0.55911937  0.98636279     0.87200
C705        C  0.37229824  0.49004329  0.49929218     0.87200
C706        C  0.36759178  0.63634658  0.49360483     0.87400
O707        O  0.37207848  0.50714204  0.70548180    -0.74900
O708        O  0.36709700  0.61672582  0.70187793    -0.75000
O709        O  0.42438956  0.56427807  0.70618226    -0.75000
O710        O  0.31453491  0.55838045  0.70155697    -0.75100
O711        O  0.31278734  0.56177060  0.78591268    -0.75000
O712        O  0.42251950  0.56464631  0.79115249    -0.75000
O713        O  0.36618480  0.61816231  0.78672739    -0.74900
O714        O  0.36917775  0.50824585  0.79038859    -0.75000
Ni715      Ni  0.36954270  0.56172122  0.70075429     1.25400
Ni716      Ni  0.36754026  0.56333636  0.79155991     1.25400
C717        C  0.37138019  0.48967961  0.74835624     0.87300
C718        C  0.36662609  0.63559368  0.74379262     0.87200
C719        C  0.44152251  0.56457236  0.74944834     0.87200
C720        C  0.29536517  0.55827628  0.74314543     0.87400
O721        O  0.50561597  0.37318623  0.54890219    -0.74900
O722        O  0.61584215  0.37324661  0.55196576    -0.75000
O723        O  0.56004308  0.42813424  0.55204158    -0.75000
O724        O  0.56053834  0.31838511  0.54954759    -0.75100
O725        O  0.56469153  0.31943933  0.95594723    -0.75000
O726        O  0.56134873  0.42948813  0.95960014    -0.75000
O727        O  0.61779577  0.37646869  0.96013341    -0.74900
O728        O  0.50838801  0.37332897  0.95453487    -0.75000
Ni729      Ni  0.56055393  0.37318278  0.55373079     1.25400
Ni730      Ni  0.56318457  0.37464302  0.95451233     1.25400
C731        C  0.48926603  0.37370213  0.99607714     0.87300
C732        C  0.63528009  0.37454943  0.00295124     0.87200
C733        C  0.55860340  0.44660711  0.50990769     0.87200
C734        C  0.56280797  0.30070860  0.50687764     0.87400
O735        O  0.55953177  0.42881236  0.70562687    -0.74900
O736        O  0.56283928  0.31853988  0.70878641    -0.75000
O737        O  0.50656205  0.37238550  0.70543958    -0.75000
O738        O  0.61612839  0.37551696  0.70781966    -0.75100
O739        O  0.61556520  0.37642097  0.79278524    -0.75000
O740        O  0.50566341  0.37351995  0.79046853    -0.75000
O741        O  0.56157203  0.32001719  0.79364172    -0.74900
O742        O  0.55881816  0.42929029  0.79066333    -0.75000
Ni743      Ni  0.56137493  0.37366503  0.70383710     1.25400
Ni744      Ni  0.56047390  0.37479086  0.79486206     1.25400
C745        C  0.55810157  0.44702894  0.74804707     0.87300
C746        C  0.56211430  0.30111392  0.75186219     0.87200
C747        C  0.48812258  0.37314852  0.74752407     0.87200
C748        C  0.63391253  0.37691385  0.75049481     0.87400
O749        O  0.55468404  0.50619861  0.55331604    -0.74900
O750        O  0.55935824  0.61582827  0.55506017    -0.75000
O751        O  0.50148893  0.56354100  0.55059515    -0.75000
O752        O  0.61152754  0.55822134  0.55725562    -0.75100
O753        O  0.61590289  0.56085655  0.97215016    -0.75000
O754        O  0.50630280  0.56389168  0.96191695    -0.75000
O755        O  0.56218793  0.61741610  0.97063251    -0.74900
O756        O  0.56031226  0.50776773  0.96363048    -0.75000
Ni757      Ni  0.55655107  0.56099709  0.55711582     1.25400
Ni758      Ni  0.56129488  0.56267437  0.96410750     1.25400
C759        C  0.55844456  0.48845035  0.00500952     0.87300
C760        C  0.56147412  0.63432201  0.01400880     0.87200
C761        C  0.48488460  0.56410563  0.50690423     0.87200
C762        C  0.63076036  0.55750762  0.51570386     0.87400
O763        O  0.50245841  0.56354562  0.70929872    -0.74900
O764        O  0.61222276  0.56309217  0.71350497    -0.75000
O765        O  0.55753007  0.50825103  0.70756036    -0.75000
O766        O  0.55724248  0.61801509  0.71555569    -0.75100
O767        O  0.55957271  0.61489264  0.79991521    -0.75000
O768        O  0.55336832  0.50569866  0.79232171    -0.75000
O769        O  0.61070946  0.55652538  0.79769370    -0.74900
O770        O  0.50100656  0.56336530  0.79426171    -0.75000
Ni771      Ni  0.55736796  0.56336813  0.70842320     1.25400
Ni772      Ni  0.55595355  0.56009359  0.79907150     1.25400
C773        C  0.48366119  0.56401311  0.75113690     0.87300
C774        C  0.62967304  0.55849527  0.75606795     0.87200
C775        C  0.55601812  0.48897689  0.74904202     0.87200
C776        C  0.55941967  0.63473645  0.75895934     0.87400
O777        O  0.00737001  0.41941551  0.49976422    -0.74900
O778        O  0.11854161  0.41286605  0.99683048    -0.75000
O779        O  0.06255453  0.41556727  0.92566862    -0.75000
O780        O  0.06322279  0.41734542  0.57196622    -0.75100
O781        O  0.06054416  0.35345427  0.57179800    -0.75000
O782        O  0.06007464  0.35165301  0.92582278    -0.75000
O783        O  0.11478024  0.35107257  0.49811025    -0.74900
O784        O  0.00603392  0.35456197  0.99963719    -0.75000
Ni785      Ni  0.06360574  0.41811263  0.99849208     1.25400
Ni786      Ni  0.06051968  0.34968684  0.99891457     1.25400
C787        C  0.98918935  0.38713444  0.00002092     0.87300
C788        C  0.13410706  0.38224689  0.49746823     0.87200
C789        C  0.06120999  0.38358359  0.90179684     0.87200
C790        C  0.06192925  0.38539750  0.59589955     0.87400
O791        O  0.00705906  0.41767197  0.74870665    -0.74900
O792        O  0.11690923  0.41509181  0.75133322    -0.75000
O793        O  0.06287202  0.41699256  0.67644291    -0.75000
O794        O  0.06130416  0.41587112  0.82246326    -0.75100
O795        O  0.06107806  0.35192391  0.82150127    -0.75000
O796        O  0.06040623  0.35310967  0.67545084    -0.75000
O797        O  0.11555745  0.35143825  0.74778634    -0.74900
O798        O  0.00587469  0.35373411  0.74898353    -0.75000
Ni799      Ni  0.06208138  0.41868807  0.74966595     1.25400
Ni800      Ni  0.06066603  0.35027643  0.74838972     1.25400
C801        C  0.98842738  0.38602463  0.74919683     0.87300
C802        C  0.13446307  0.38287639  0.74990862     0.87200
C803        C  0.06179206  0.38520396  0.65192645     0.87200
C804        C  0.06115191  0.38372316  0.84593421     0.87400
O805        O  0.92834308  0.35652764  0.49990080    -0.74900
O806        O  0.82024990  0.35256488  0.00041674    -0.75000
O807        O  0.87497940  0.35417737  0.92773707    -0.75000
O808        O  0.87399748  0.35517928  0.57336573    -0.75100
O809        O  0.87371966  0.41913354  0.57435067    -0.75000
O810        O  0.87321459  0.41810392  0.92770934    -0.75000
O811        O  0.81785820  0.41885519  0.50272034    -0.74900
O812        O  0.92867875  0.41945565  0.00049677    -0.75000
Ni813      Ni  0.87367497  0.35357235  0.50029688     1.25400
Ni814      Ni  0.87288169  0.42208063  0.50141944     1.25400
C815        C  0.94624066  0.38855260  0.50000320     0.87300
C816        C  0.80045687  0.38647482  0.50235645     0.87200
C817        C  0.87396288  0.38612514  0.90372978     0.87200
C818        C  0.87379727  0.38696258  0.59782608     0.87400
O819        O  0.92829172  0.35450753  0.74982800    -0.74900
O820        O  0.81872364  0.35415775  0.75157858    -0.75000
O821        O  0.87298671  0.35460073  0.67753332    -0.75000
O822        O  0.87416233  0.35421822  0.82366971    -0.75100
O823        O  0.87285079  0.41813943  0.82383525    -0.75000
O824        O  0.87371847  0.41854122  0.67788072    -0.75000
O825        O  0.81813222  0.41786750  0.74955635    -0.74900
O826        O  0.92831734  0.41844756  0.75124441    -0.75000
Ni827      Ni  0.87352603  0.35212209  0.75064458     1.25400
Ni828      Ni  0.87323080  0.42055270  0.75075407     1.25400
C829        C  0.94634722  0.38645355  0.75013232     0.87300
C830        C  0.80017538  0.38578407  0.75011064     0.87200
C831        C  0.87350247  0.38665209  0.65373538     0.87200
C832        C  0.87363257  0.38616253  0.84775391     0.87400
C833        C  0.69503267  0.40968025  0.77610350    -0.02300
C834        C  0.67629620  0.37942774  0.75055251     0.07300
C835        C  0.69810001  0.35240030  0.72322375    -0.02500
C836        C  0.73826148  0.35567885  0.72095495    -0.02500
C837        C  0.75743940  0.38474649  0.74884561     0.07500
C838        C  0.73539195  0.41187191  0.77626694    -0.02700
Br839      Br  0.75975423  0.45131631  0.81627168    -0.01200
Br840      Br  0.66531659  0.44937667  0.80885159    -0.01300
Br841      Br  0.76614414  0.32149266  0.67630978    -0.01200
Br842      Br  0.67310955  0.30956247  0.69057497    -0.01200
C843        C  0.73953299  0.36469014  0.96049828    -0.02300
C844        C  0.75826614  0.38500804  0.50407740     0.07300
C845        C  0.73864314  0.39699232  0.54799261    -0.02500
C846        C  0.69838931  0.39390592  0.55067817    -0.02500
C847        C  0.67741734  0.37749507  0.50959401     0.07500
C848        C  0.69942020  0.36068677  0.96210245    -0.02700
Br849      Br  0.67501335  0.33196388  0.90809319    -0.01200
Br850      Br  0.76785791  0.34713201  0.90163514    -0.01300
Br851      Br  0.67320670  0.41315169  0.61086819    -0.01200
Br852      Br  0.76758079  0.41605001  0.60541064    -0.01200
C853        C  0.23699052  0.35037044  0.77574200    -0.02300
C854        C  0.25818407  0.37749763  0.74774031     0.07300
C855        C  0.23903418  0.40776269  0.72306684    -0.02500
C856        C  0.19874663  0.40975004  0.72391091    -0.02500
C857        C  0.17714358  0.38181074  0.75050816     0.07500
C858        C  0.19672824  0.35260898  0.77751500    -0.02700
Br859      Br  0.16924227  0.31665446  0.81997670    -0.01200
Br860      Br  0.26310649  0.30954360  0.81131904    -0.01300
Br861      Br  0.17396616  0.45056364  0.68693665    -0.01200
Br862      Br  0.26817396  0.44818987  0.69096798    -0.01200
C863        C  0.19683962  0.39382155  0.95136547    -0.02300
C864        C  0.17639221  0.38020859  0.49665924     0.07300
C865        C  0.19606883  0.36161791  0.53635324    -0.02500
C866        C  0.23630341  0.35884121  0.53537858    -0.02500
C867        C  0.25758886  0.37581130  0.49517471     0.07500
C868        C  0.23717215  0.39179201  0.94841391    -0.02700
Br869      Br  0.26237196  0.41609171  0.89156083    -0.01200
Br870      Br  0.16802593  0.41739481  0.89693813    -0.01300
Br871      Br  0.26103751  0.32955908  0.58854525    -0.01200
Br872      Br  0.16775168  0.34087722  0.59331858    -0.01200
C873        C  0.54652074  0.73871167  0.80265724    -0.02300
C874        C  0.56078986  0.75864096  0.76019883     0.07300
C875        C  0.57805190  0.73841710  0.72002081    -0.02500
C876        C  0.57886617  0.69812652  0.72059800    -0.02500
C877        C  0.56177996  0.67748554  0.76130223     0.07500
C878        C  0.54695980  0.69832470  0.80352990    -0.02700
Br879      Br  0.52714066  0.67302615  0.86350469    -0.01200
Br880      Br  0.52853084  0.76721824  0.86112640    -0.01300
Br881      Br  0.60646030  0.67233410  0.66679234    -0.01200
Br882      Br  0.60059058  0.76611346  0.66371949    -0.01200
C883        C  0.58654084  0.69702994  0.48076562    -0.02300
C884        C  0.56160432  0.67695206  0.51365629     0.07300
C885        C  0.53875287  0.69768947  0.04967250    -0.02500
C886        C  0.53805326  0.73810101  0.04831765    -0.02500
C887        C  0.56020291  0.75817590  0.51013216     0.07500
C888        C  0.58553690  0.73737023  0.47851840    -0.02700
Br889      Br  0.61851095  0.76362487  0.43081562    -0.01200
Br890      Br  0.62416492  0.66961541  0.44098527    -0.01300
Br891      Br  0.50737055  0.76571635  0.09737493    -0.01200
Br892      Br  0.50580141  0.67130384  0.09722471    -0.01200
C893        C  0.58306589  0.19750287  0.78903087    -0.02300
C894        C  0.55724934  0.17727231  0.75727967     0.07300
C895        C  0.53245824  0.19805132  0.72492969    -0.02500
C896        C  0.53408094  0.23836950  0.72336479    -0.02500
C897        C  0.56078993  0.25853028  0.75364560     0.07500
C898        C  0.58475884  0.23786951  0.78726576    -0.02700
Br899      Br  0.62060470  0.26447311  0.83074976    -0.01200
Br900      Br  0.61497587  0.17034659  0.83725627    -0.01300
Br901      Br  0.49747297  0.26599852  0.68238053    -0.01200
Br902      Br  0.49680337  0.17156752  0.68115732    -0.01200
C903        C  0.58218966  0.23704777  0.54433288    -0.02300
C904        C  0.56257297  0.25801858  0.50615473     0.07300
C905        C  0.53812299  0.23772836  0.96383930    -0.02500
C906        C  0.53663223  0.19741487  0.96553079    -0.02500
C907        C  0.55898057  0.17694335  0.50790673     0.07500
C908        C  0.57968595  0.19678016  0.54577673    -0.02700
Br909      Br  0.60358594  0.16882910  0.60091207    -0.01200
Br910      Br  0.61483740  0.26264911  0.59310126    -0.01300
Br911      Br  0.50777484  0.16981460  0.91460130    -0.01200
Br912      Br  0.50537635  0.26476758  0.91696223    -0.01200
C913        C  0.23361760  0.53648257  0.78462260    -0.02300
C914        C  0.25264140  0.55352507  0.74239743     0.07300
C915        C  0.23020877  0.56572058  0.70008393    -0.02500
C916        C  0.18992138  0.56278808  0.70154230    -0.02500
C917        C  0.17150276  0.54814143  0.74495806     0.07500
C918        C  0.19332987  0.53476218  0.78620749    -0.02700
Br919      Br  0.16761959  0.51555376  0.84609023    -0.01200
Br920      Br  0.26167424  0.51247305  0.83953929    -0.01300
Br921      Br  0.15953741  0.57790418  0.64323104    -0.01200
Br922      Br  0.25306616  0.58706035  0.63943694    -0.01200
C923        C  0.19105953  0.57580584  0.46038134    -0.02300
C924        C  0.17321430  0.54765290  0.49116366     0.07300
C925        C  0.19797808  0.51990941  0.01098538    -0.02500
C926        C  0.23822013  0.52264114  0.00763219    -0.02500
C927        C  0.25441013  0.55362878  0.48751344     0.07500
C928        C  0.23135266  0.57876885  0.45875340    -0.02700
Br929      Br  0.25459847  0.61819050  0.41794037    -0.01200
Br930      Br  0.16079464  0.60945225  0.41775901    -0.01300
Br931      Br  0.26989515  0.48169428  0.03379229    -0.01200
Br932      Br  0.17641010  0.47710313  0.04718086    -0.01200
C933        C  0.73171810  0.53222590  0.71748032    -0.02300
C934        C  0.75318478  0.54806514  0.75775174     0.07300
C935        C  0.73420567  0.56632282  0.79838616    -0.02500
C936        C  0.69402472  0.57022763  0.79777522    -0.02500
C937        C  0.67222345  0.55471891  0.75700725     0.07500
C938        C  0.69145044  0.53486226  0.71740993    -0.02700
Br939      Br  0.66324489  0.50911595  0.66393198    -0.01200
Br940      Br  0.75773971  0.50838451  0.66102456    -0.01300
Br941      Br  0.66991722  0.59867478  0.85218419    -0.01200
Br942      Br  0.76334393  0.58481728  0.85610887    -0.01200
C943        C  0.73177596  0.52031975  0.98768608    -0.02300
C944        C  0.75382778  0.54762560  0.51452857     0.07300
C945        C  0.73580477  0.57478768  0.54659831    -0.02500
C946        C  0.69560377  0.57810698  0.54698019    -0.02500
C947        C  0.67292984  0.55316685  0.51730000     0.07500
C948        C  0.69158186  0.52324325  0.98938524    -0.02700
Br949      Br  0.66056962  0.48594650  0.95362255    -0.01200
Br950      Br  0.75461660  0.48136106  0.94540542    -0.01300
Br951      Br  0.67190822  0.61835359  0.58616682    -0.01200
Br952      Br  0.76565879  0.60609053  0.59283628    -0.01200
C953        C  0.40118963  0.19889979  0.77677816    -0.02300
C954        C  0.38290643  0.17807665  0.73776718     0.07300
C955        C  0.36315294  0.19772695  0.69896578    -0.02500
C956        C  0.35991276  0.23794254  0.70057016    -0.02500
C957        C  0.37759619  0.25909663  0.74040616     0.07500
C958        C  0.39941879  0.23920053  0.77744025    -0.02700
Br959      Br  0.42939506  0.26661926  0.82743472    -0.01200
Br960      Br  0.42695199  0.17205025  0.83106914    -0.01300
Br961      Br  0.32974190  0.26288124  0.64856399    -0.01200
Br962      Br  0.34153298  0.16942909  0.64237006    -0.01200
C963        C  0.36017322  0.19913512  0.45562943    -0.02300
C964        C  0.38460804  0.17930045  0.48934913     0.07300
C965        C  0.41145282  0.20050714  0.01257400    -0.02500
C966        C  0.40925888  0.24078782  0.01337895    -0.02500
C967        C  0.37703449  0.25979153  0.49652632     0.07500
C968        C  0.35540454  0.23897674  0.46033795    -0.02700
Br969      Br  0.31741133  0.26437542  0.41885708    -0.01200
Br970      Br  0.33511786  0.17219415  0.40043180    -0.01300
Br971      Br  0.44852417  0.27022491  0.04762556    -0.01200
Br972      Br  0.45093905  0.17562958  0.05194216    -0.01200
C973        C  0.34463436  0.73944574  0.70966530    -0.02300
C974        C  0.37151693  0.75933563  0.74024009     0.07300
C975        C  0.39634125  0.73830707  0.77231565    -0.02500
C976        C  0.39496417  0.69798090  0.77284397    -0.02500
C977        C  0.36783388  0.67814029  0.74279552     0.07500
C978        C  0.34249856  0.69913527  0.71153357    -0.02700
Br979      Br  0.30351499  0.67306491  0.67263772    -0.01200
Br980      Br  0.31148043  0.76687097  0.66319629    -0.01300
Br981      Br  0.43169040  0.66999447  0.81334865    -0.01200
Br982      Br  0.43088454  0.76440054  0.81828847    -0.01200
C983        C  0.38158556  0.70093286  0.53477889    -0.02300
C984        C  0.36787108  0.67945786  0.49227817     0.07300
C985        C  0.35608737  0.69982107  0.94844246    -0.02500
C986        C  0.35632362  0.74023864  0.94854378    -0.02500
C987        C  0.37053775  0.76094373  0.48919806     0.07500
C988        C  0.38321121  0.74127123  0.53272605    -0.02700
Br989      Br  0.40185568  0.77022247  0.59053801    -0.01200
Br990      Br  0.39992781  0.67650860  0.59624192    -0.01300
Br991      Br  0.33772131  0.76834543  0.89001287    -0.01200
Br992      Br  0.33752941  0.67457374  0.88761497    -0.01200
loop_ 
_geom_bond_atom_site_label_1 
_geom_bond_atom_site_label_2 
_geom_bond_distance 
_geom_bond_site_symmetry_2 
_ccdc_geom_bond_type 
O1         Ni505   1.921       .  S
O1          C507   1.281       .  A
O2           Ni9   1.921       .  S
O2          C508   1.282       .  A
O3           Ni9   1.919       .  S
O3           C13   1.281       .  A
O4         Ni505   1.916   1_554  S
O4           C14   1.281       .  A
O5         Ni506   1.919   1_554  S
O5           C14   1.281       .  A
O6          Ni10   1.917       .  S
O6           C13   1.281       .  A
O7         Ni506   1.918       .  S
O7           C12   1.281       .  A
O8          Ni10   1.916       .  S
O8           C11   1.281       .  A
Ni9         O497   1.921       .  S
Ni9         O500   1.919       .  S
Ni9         Ni10   2.391       .  S
Ni10        O501   1.920       .  S
Ni10        O503   1.919       .  S
C11         O497   1.281       .  A
C11         C535   1.469       .  S
C12         O498   1.282       .  A
C12         C491   1.477       .  S
C13          C28   1.468       .  S
C14          C27   1.467       .  S
O15         Ni23   1.922       .  S
O15          C25   1.281       .  A
O16         Ni23   1.917       .  S
O16          C26   1.282       .  A
O17         Ni23   1.915       .  S
O17          C27   1.280       .  A
O18         Ni23   1.919       .  S
O18          C28   1.281       .  A
O19         Ni24   1.916       .  S
O19          C28   1.281       .  A
O20         Ni24   1.920       .  S
O20          C27   1.281       .  A
O21         Ni24   1.915       .  S
O21          C26   1.280       .  A
O22         Ni24   1.917       .  S
O22          C25   1.282       .  A
Ni23        Ni24   2.389       .  S
C25          C53   1.470       .  S
C26         C478   1.485       .  S
O29         Ni37   1.912       .  S
O29          C39   1.280   1_545  A
O30        Ni533   1.908       .  S
O30         C536   1.279       .  A
O31        Ni533   1.919       .  S
O31          C41   1.282       .  A
O32         Ni37   1.919   1_554  S
O32          C42   1.281       .  A
O33         Ni38   1.922   1_554  S
O33          C42   1.282       .  A
O34        Ni534   1.918       .  S
O34          C41   1.281       .  A
O35         Ni38   1.921       .  S
O35          C40   1.282       .  A
O36        Ni534   1.925       .  S
O36         C535   1.283   1_545  A
Ni37        O526   1.908       .  S
Ni37        O527   1.922       .  S
Ni37        Ni38   2.389       .  S
Ni38        O530   1.914       .  S
Ni38        O532   1.924       .  S
C39         O532   1.282   1_565  A
C39         C507   1.468       .  S
C40         O526   1.280       .  A
C40         C468   1.485       .  S
C41          C56   1.469       .  S
C42          C55   1.471       .  S
O43         Ni51   1.912       .  S
O43          C53   1.280   1_545  A
O44         Ni51   1.913       .  S
O44          C54   1.280       .  A
O45         Ni51   1.918       .  S
O45          C55   1.281       .  A
O46         Ni51   1.917       .  S
O46          C56   1.281       .  A
O47         Ni52   1.921       .  S
O47          C56   1.282       .  A
O48         Ni52   1.923       .  S
O48          C55   1.282       .  A
O49         Ni52   1.928       .  S
O49          C54   1.283       .  A
O50         Ni52   1.926       .  S
O50          C53   1.283   1_545  A
Ni51        Ni52   2.390       .  S
C54         C458   1.482       .  S
O57        Ni561   1.921       .  S
O57         C563   1.282       .  A
O58         Ni65   1.918       .  S
O58         C564   1.281       .  A
O59         Ni65   1.924       .  S
O59          C69   1.284       .  A
O60        Ni561   1.916       .  S
O60          C70   1.282       .  A
O61        Ni562   1.916       .  S
O61          C70   1.280       .  A
O62         Ni66   1.918       .  S
O62          C69   1.279       .  A
O63        Ni562   1.917       .  S
O63          C68   1.281       .  A
O64         Ni66   1.919       .  S
O64          C67   1.281       .  A
Ni65        O553   1.922       .  S
Ni65        O556   1.917       .  S
Ni65        Ni66   2.389       .  S
Ni66        O557   1.919       .  S
Ni66        O559   1.916       .  S
C67         O553   1.282       .  A
C67         C591   1.471       .  S
C68         O554   1.281       .  A
C68         C448   1.486       .  S
C69          C84   1.472       .  S
C70          C83   1.466       .  S
O71         Ni79   1.929       .  S
O71          C81   1.283       .  A
O72         Ni79   1.929       .  S
O72          C82   1.284       .  A
O73         Ni79   1.912       .  S
O73          C83   1.279       .  A
O74         Ni79   1.918       .  S
O74          C84   1.279       .  A
O75         Ni80   1.924       .  S
O75          C84   1.284       .  A
O76         Ni80   1.920       .  S
O76          C83   1.283       .  A
O77         Ni80   1.912       .  S
O77          C82   1.279       .  A
O78         Ni80   1.910       .  S
O78          C81   1.280       .  A
Ni79        Ni80   2.390       .  S
C81         C109   1.471       .  S
C82         C438   1.485       .  S
O85         Ni93   1.917       .  S
O85          C95   1.282   1_456  A
O86        Ni589   1.918       .  S
O86         C592   1.281       .  A
O87        Ni589   1.920       .  S
O87          C97   1.282       .  A
O88         Ni93   1.918   1_554  S
O88          C98   1.281       .  A
O89         Ni94   1.922   1_554  S
O89          C98   1.282       .  A
O90        Ni590   1.915       .  S
O90          C97   1.280       .  A
O91         Ni94   1.927       .  S
O91          C96   1.283       .  A
O92        Ni590   1.924       .  S
O92         C591   1.282   1_455  A
Ni93        O582   1.920       .  S
Ni93        O583   1.920       .  S
Ni93        Ni94   2.387       .  S
Ni94        O586   1.914       .  S
Ni94        O588   1.924   1_556  S
C95         O588   1.281   1_655  A
C95         C563   1.471       .  S
C96         O582   1.282       .  A
C96         C428   1.499       .  S
C97         C112   1.468       .  S
C98         C111   1.471       .  S
O99        Ni107   1.913       .  S
O99         C109   1.281   1_455  A
O100       Ni107   1.911       .  S
O100        C110   1.279       .  A
O101       Ni107   1.920       .  S
O101        C111   1.282       .  A
O102       Ni107   1.920       .  S
O102        C112   1.281       .  A
O103       Ni108   1.916       .  S
O103        C112   1.282       .  A
O104       Ni108   1.920       .  S
O104        C111   1.282       .  A
O105       Ni108   1.923       .  S
O105        C110   1.282       .  A
O106       Ni108   1.927       .  S
O106        C109   1.282   1_455  A
Ni107      Ni108   2.391       .  S
C110        C421   1.475       .  S
O113       Ni617   1.927       .  S
O113        C619   1.283   1_545  A
O114       Ni121   1.921       .  S
O114        C620   1.283       .  A
O115       Ni121   1.918       .  S
O115        C125   1.281       .  A
O116       Ni617   1.921       .  S
O116        C126   1.281       .  A
O117       Ni618   1.919       .  S
O117        C126   1.282       .  A
O118       Ni122   1.922       .  S
O118        C125   1.282       .  A
O119       Ni618   1.909       .  S
O119        C124   1.279       .  A
O120       Ni122   1.912       .  S
O120        C123   1.280   1_545  A
Ni121       O609   1.927       .  S
Ni121       O612   1.916       .  S
Ni121      Ni122   2.391       .  S
Ni122       O613   1.921       .  S
Ni122       O615   1.910       .  S
C123        O609   1.283   1_565  A
C123        C647   1.470       .  S
C124        O610   1.283       .  A
C124        C411   1.480       .  S
C125        C140   1.471       .  S
C126        C139   1.471       .  S
O127       Ni135   1.924       .  S
O127        C137   1.282   1_545  A
O128       Ni135   1.925       .  S
O128        C138   1.283       .  A
O129       Ni135   1.923       .  S
O129        C139   1.282       .  A
O130       Ni135   1.920       .  S
O130        C140   1.282       .  A
O131       Ni136   1.919       .  S
O131        C140   1.281       .  A
O132       Ni136   1.917       .  S
O132        C139   1.281       .  A
O133       Ni136   1.919       .  S
O133        C138   1.281       .  A
O134       Ni136   1.914       .  S
O134        C137   1.281   1_545  A
Ni135      Ni136   2.389       .  S
C137        C165   1.470       .  S
C138        C398   1.488       .  S
O141       Ni149   1.912       .  S
O141        C151   1.281       .  A
O142       Ni645   1.915       .  S
O142        C648   1.280       .  A
O143       Ni645   1.920       .  S
O143        C153   1.282       .  A
O144       Ni149   1.915       .  S
O144        C154   1.281       .  A
O145       Ni150   1.918       .  S
O145        C154   1.281       .  A
O146       Ni646   1.917       .  S
O146        C153   1.281       .  A
O147       Ni150   1.927       .  S
O147        C152   1.284       .  A
O148       Ni646   1.925       .  S
O148        C647   1.282       .  A
Ni149       O638   1.916       .  S
Ni149       O639   1.920   1_554  S
Ni149      Ni150   2.389       .  S
Ni150       O642   1.919   1_554  S
Ni150       O644   1.926       .  S
C151        O644   1.282       .  A
C151        C619   1.470       .  S
C152        O638   1.280       .  A
C152        C391   1.487       .  S
C153        C168   1.469       .  S
C154        C167   1.466       .  S
O155       Ni163   1.911       .  S
O155        C165   1.280       .  A
O156       Ni163   1.907       .  S
O156        C166   1.278       .  A
O157       Ni163   1.917       .  S
O157        C167   1.281       .  A
O158       Ni163   1.919       .  S
O158        C168   1.281       .  A
O159       Ni164   1.918       .  S
O159        C168   1.281       .  A
O160       Ni164   1.917       .  S
O160        C167   1.281       .  A
O161       Ni164   1.920       .  S
O161        C166   1.282       .  A
O162       Ni164   1.927       .  S
O162        C165   1.283       .  A
Ni163      Ni164   2.392       .  S
C166        C378   1.471       .  S
O169       Ni177   1.918       .  S
O169        C675   1.281   1_554  A
O170       Ni177   1.920       .  S
O170        C676   1.282   1_554  A
O171       Ni177   1.912       .  S
O171        C181   1.279   1_554  A
O172       Ni177   1.915       .  S
O172        C182   1.281   1_554  A
O173       Ni178   1.924       .  S
O173        C678   1.282       .  A
O174       Ni178   1.919       .  S
O174        C677   1.282       .  A
O175       Ni178   1.904       .  S
O175        C180   1.278       .  A
O176       Ni178   1.913       .  S
O176        C179   1.280       .  A
Ni177      Ni674   2.388   1_554  S
Ni178      Ni673   2.386       .  S
C179        O665   1.282       .  A
C179        C705   1.468       .  S
C180        O666   1.284       .  A
C180        C967   1.481       .  S
C181        O670   1.282       .  A
C181        C731   1.466       .  S
C182        O669   1.283       .  A
C182        C371   1.497       .  S
O183       Ni191   1.914       .  S
O183        C193   1.280       .  A
O184       Ni191   1.923       .  S
O184        C194   1.282       .  A
O185       Ni191   1.915       .  S
O185        C195   1.280       .  A
O186       Ni191   1.913       .  S
O186        C196   1.280       .  A
O187       Ni192   1.924       .  S
O187        C196   1.283       .  A
O188       Ni192   1.922       .  S
O188        C195   1.282       .  A
O189       Ni192   1.911       .  S
O189        C194   1.280       .  A
O190       Ni192   1.912       .  S
O190        C193   1.280       .  A
Ni191      Ni192   2.388       .  S
C193        C251   1.462       .  S
C194        C358   1.481       .  S
C195        C221   1.468       .  S
C196        C461   1.492       .  S
O197       Ni205   1.923       .  S
O197        C703   1.281   1_554  A
O198       Ni205   1.915       .  S
O198        C704   1.280   1_554  A
O199       Ni205   1.920       .  S
O199        C209   1.282   1_554  A
O200       Ni205   1.924       .  S
O200        C210   1.282   1_554  A
O201       Ni206   1.922       .  S
O201        C706   1.281       .  A
O202       Ni206   1.915       .  S
O202        C705   1.281       .  A
O203       Ni206   1.930       .  S
O203        C208   1.283       .  A
O204       Ni206   1.922       .  S
O204        C207   1.282       .  A
Ni205      Ni702   2.384   1_554  S
Ni206      Ni701   2.384       .  S
C207        O693   1.282       .  A
C207        C761   1.476       .  S
C208        O694   1.281       .  A
C208        C927   1.488       .  S
C209        O698   1.281       .  A
C209        C675   1.468       .  S
C210        O697   1.280       .  A
C210        C488   1.504       .  S
O211       Ni219   1.914       .  S
O211        C221   1.281       .  A
O212       Ni219   1.924       .  S
O212        C222   1.282       .  A
O213       Ni219   1.925       .  S
O213        C223   1.283       .  A
O214       Ni219   1.923       .  S
O214        C224   1.281       .  A
O215       Ni220   1.916       .  S
O215        C224   1.281       .  A
O216       Ni220   1.922       .  S
O216        C223   1.281       .  A
O217       Ni220   1.916       .  S
O217        C222   1.281       .  A
O218       Ni220   1.922       .  S
O218        C221   1.281       .  A
Ni219      Ni220   2.385       .  S
C222        C481   1.485       .  S
C223        C277   1.475       .  S
C224        C418   1.500       .  S
O225       Ni233   1.919       .  S
O225        C731   1.282   1_554  A
O226       Ni233   1.926       .  S
O226        C732   1.283       .  A
O227       Ni233   1.913       .  S
O227        C237   1.280       .  A
O228       Ni233   1.909       .  S
O228        C238   1.279   1_554  A
O229       Ni234   1.922       .  S
O229        C734   1.282       .  A
O230       Ni234   1.912       .  S
O230        C733   1.279       .  A
O231       Ni234   1.909       .  S
O231        C236   1.279       .  A
O232       Ni234   1.912       .  S
O232        C235   1.280       .  A
Ni233      Ni730   2.386   1_554  S
Ni234      Ni729   2.384       .  S
C235        O721   1.282       .  A
C235        C677   1.467       .  S
C236        O722   1.284       .  A
C236        C847   1.498       .  S
C237        O726   1.281   1_554  A
C237        C759   1.467       .  S
C238        O725   1.284       .  A
C238        C408   1.484       .  S
O239       Ni247   1.925       .  S
O239        C249   1.281       .  A
O240       Ni247   1.928       .  S
O240        C250   1.284       .  A
O241       Ni247   1.913       .  S
O241        C251   1.280       .  A
O242       Ni247   1.916       .  S
O242        C252   1.281       .  A
O243       Ni248   1.921       .  S
O243        C252   1.282       .  A
O244       Ni248   1.913       .  S
O244        C251   1.280       .  A
O245       Ni248   1.916       .  S
O245        C250   1.280       .  A
O246       Ni248   1.909       .  S
O246        C249   1.281       .  A
Ni247      Ni248   2.390       .  S
C249        C279   1.466       .  S
C250        C401   1.490       .  S
C252        C338   1.480       .  S
O253       Ni261   1.917       .  S
O253        C759   1.281       .  A
O254       Ni261   1.921       .  S
O254        C760   1.281       .  A
O255       Ni261   1.929       .  S
O255        C265   1.284       .  A
O256       Ni261   1.920       .  S
O256        C266   1.281       .  A
O257       Ni262   1.915       .  S
O257        C762   1.281       .  A
O258       Ni262   1.917       .  S
O258        C761   1.280       .  A
O259       Ni262   1.918       .  S
O259        C264   1.282       .  A
O260       Ni262   1.916       .  S
O260        C263   1.281       .  A
Ni261      Ni758   2.388   1_554  S
Ni262      Ni757   2.388       .  S
C263        O749   1.280       .  A
C263        C733   1.465       .  S
C264        O750   1.281       .  A
C264        C884   1.486       .  S
C265        O754   1.281   1_554  A
C265        C703   1.477   1_554  S
C266        O753   1.282   1_554  A
C266        C451   1.481       .  S
O267       Ni275   1.919       .  S
O267        C277   1.281       .  A
O268       Ni275   1.919       .  S
O268        C278   1.281       .  A
O269       Ni275   1.928       .  S
O269        C279   1.283       .  A
O270       Ni275   1.923       .  S
O270        C280   1.283       .  A
O271       Ni276   1.907       .  S
O271        C280   1.277       .  A
O272       Ni276   1.903       .  S
O272        C279   1.278       .  A
O273       Ni276   1.918       .  S
O273        C278   1.282       .  A
O274       Ni276   1.928       .  S
O274        C277   1.284       .  A
Ni275      Ni276   2.385       .  S
C278        C441   1.485       .  S
C280        C381   1.492       .  S
O281       Ni785   1.927       .  S
O281        C787   1.282   1_456  A
O282       Ni289   1.923       .  S
O282        C788   1.282       .  A
O283       Ni289   1.918       .  S
O283        C293   1.281       .  A
O284       Ni785   1.919   1_554  S
O284        C294   1.281       .  A
O285       Ni786   1.921   1_554  S
O285        C294   1.282       .  A
O286       Ni290   1.918       .  S
O286        C293   1.281       .  A
O287       Ni786   1.913       .  S
O287        C292   1.279       .  A
O288       Ni290   1.912       .  S
O288        C291   1.281   1_455  A
Ni289       O777   1.925       .  S
Ni289       O780   1.921       .  S
Ni289      Ni290   2.391       .  S
Ni290       O781   1.919       .  S
Ni290       O783   1.913       .  S
C291        O777   1.282   1_655  A
C291        C815   1.469       .  S
C292        O778   1.283       .  A
C292        C368   1.482       .  S
C293        C308   1.468       .  S
C294        C307   1.471       .  S
O295       Ni303   1.923       .  S
O295        C305   1.282   1_455  A
O296       Ni303   1.918       .  S
O296        C306   1.282       .  A
O297       Ni303   1.923       .  S
O297        C307   1.283       .  A
O298       Ni303   1.917       .  S
O298        C308   1.281       .  A
O299       Ni304   1.919       .  S
O299        C308   1.281       .  A
O300       Ni304   1.917       .  S
O300        C307   1.280       .  A
O301       Ni304   1.915       .  S
O301        C306   1.280       .  A
O302       Ni304   1.917       .  S
O302        C305   1.281   1_455  A
Ni303      Ni304   2.389       .  S
C305        C333   1.471       .  S
C306        C361   1.486       .  S
O309       Ni317   1.908       .  S
O309        C319   1.280       .  A
O310       Ni813   1.909       .  S
O310        C816   1.279       .  A
O311       Ni813   1.918       .  S
O311        C321   1.281       .  A
O312       Ni317   1.921       .  S
O312        C322   1.282       .  A
O313       Ni318   1.915       .  S
O313        C322   1.281       .  A
O314       Ni814   1.922       .  S
O314        C321   1.282       .  A
O315       Ni318   1.925       .  S
O315        C320   1.283       .  A
O316       Ni814   1.927       .  S
O316        C815   1.283       .  A
Ni317       O806   1.907       .  S
Ni317       O807   1.921   1_554  S
Ni317      Ni318   2.391       .  S
Ni318       O810   1.917   1_554  S
Ni318       O812   1.929       .  S
C319        O812   1.283       .  A
C319        C787   1.469       .  S
C320        O806   1.278       .  A
C320        C348   1.474       .  S
C321        C336   1.471       .  S
C322        C335   1.468       .  S
O323       Ni331   1.915       .  S
O323        C333   1.281       .  A
O324       Ni331   1.916       .  S
O324        C334   1.281       .  A
O325       Ni331   1.919       .  S
O325        C335   1.281       .  A
O326       Ni331   1.915       .  S
O326        C336   1.281       .  A
O327       Ni332   1.925       .  S
O327        C336   1.282       .  A
O328       Ni332   1.917       .  S
O328        C335   1.281       .  A
O329       Ni332   1.926       .  S
O329        C334   1.283       .  A
O330       Ni332   1.925       .  S
O330        C333   1.282       .  A
Ni331      Ni332   2.388       .  S
C334        C341   1.494       .  S
C337        C338   1.410       .  A
C337        C342   1.410       .  A
C337       Br344   1.934       .  S
C338        C339   1.408       .  A
C339        C340   1.409       .  A
C339       Br346   1.932       .  S
C340        C341   1.418       .  A
C340       Br345   1.934       .  S
C341        C342   1.418       .  A
C342       Br343   1.927       .  S
C347        C352   1.407       .  A
C347        C844   1.404       .  A
C347       Br354   1.935       .  S
C348        C349   1.405       .  A
C348        C843   1.405   1_554  A
C349        C350   1.410       .  A
C349       Br356   1.929       .  S
C350        C351   1.421       .  A
C350       Br355   1.930       .  S
C351        C732   1.497       .  S
C351        C848   1.422   1_554  A
C352        C847   1.423       .  A
C352       Br353   1.933       .  S
C357        C358   1.411       .  A
C357        C362   1.408       .  A
C357       Br364   1.932       .  S
C358        C359   1.411       .  A
C359        C360   1.408       .  A
C359       Br366   1.933       .  S
C360        C361   1.415       .  A
C360       Br365   1.930       .  S
C361        C362   1.415       .  A
C362       Br363   1.934       .  S
C367        C372   1.411       .  A
C367        C864   1.407       .  A
C367       Br374   1.931       .  S
C368        C369   1.407   1_556  A
C368        C863   1.410       .  A
C369        C370   1.408       .  A
C369       Br376   1.934       .  S
C370        C371   1.419   1_554  A
C370       Br375   1.930       .  S
C371        C868   1.419       .  A
C372        C867   1.421       .  A
C372       Br373   1.933       .  S
C377        C378   1.405       .  A
C377        C382   1.408       .  A
C377       Br384   1.934       .  S
C378        C379   1.406       .  A
C379        C380   1.407       .  A
C379       Br386   1.935       .  S
C380        C381   1.419       .  A
C380       Br385   1.932       .  S
C381        C382   1.424       .  A
C382       Br383   1.936       .  S
C387        C388   1.415   1_556  A
C387        C392   1.409       .  A
C387       Br394   1.933       .  S
C388        C760   1.490       .  S
C388        C885   1.416       .  A
C389        C390   1.409       .  A
C389        C884   1.414       .  A
C389       Br396   1.932       .  S
C390        C887   1.413       .  A
C390       Br395   1.933       .  S
C391        C392   1.413   1_554  A
C391        C886   1.413       .  A
C392       Br393   1.934       .  S
C397        C398   1.413       .  A
C397        C402   1.411       .  A
C397       Br404   1.934       .  S
C398        C399   1.412       .  A
C399        C400   1.410       .  A
C399       Br406   1.929       .  S
C400        C401   1.413       .  A
C400       Br405   1.932       .  S
C401        C402   1.415       .  A
C402       Br403   1.930       .  S
C407        C408   1.413   1_554  A
C407        C412   1.407       .  A
C407       Br414   1.932       .  S
C408        C905   1.412       .  A
C409        C410   1.408       .  A
C409        C904   1.417       .  A
C409       Br416   1.931       .  S
C410        C907   1.407       .  A
C410       Br415   1.930       .  S
C411        C412   1.411       .  A
C411        C906   1.410   1_554  A
C412       Br413   1.933       .  S
C417        C418   1.425       .  A
C417        C422   1.408       .  A
C417       Br424   1.935       .  S
C418        C419   1.423       .  A
C419        C420   1.410       .  A
C419       Br426   1.934       .  S
C420        C421   1.406       .  A
C420       Br425   1.935       .  S
C421        C422   1.403       .  A
C422       Br423   1.932       .  S
C427        C428   1.420       .  A
C427        C432   1.411       .  A
C427       Br434   1.935       .  S
C428        C925   1.418   1_556  A
C429        C430   1.411       .  A
C429        C924   1.415       .  A
C429       Br436   1.927       .  S
C430        C927   1.412       .  A
C430       Br435   1.933       .  S
C431        C704   1.486       .  S
C431        C432   1.407       .  A
C431        C926   1.409   1_556  A
C432       Br433   1.923       .  S
C437        C438   1.411       .  A
C437        C442   1.410       .  A
C437       Br444   1.926       .  S
C438        C439   1.412       .  A
C439        C440   1.409       .  A
C439       Br446   1.932       .  S
C440        C441   1.412       .  A
C440       Br445   1.931       .  S
C441        C442   1.414       .  A
C442       Br443   1.931       .  S
C447        C452   1.408       .  A
C447        C944   1.414       .  A
C447       Br454   1.928       .  S
C448        C449   1.415       .  A
C448        C943   1.413   1_554  A
C449        C450   1.409       .  A
C449       Br456   1.934       .  S
C450        C451   1.410       .  A
C450       Br455   1.928       .  S
C451        C948   1.411   1_554  A
C452        C947   1.411       .  A
C452       Br453   1.934       .  S
C457        C458   1.409       .  A
C457        C462   1.412       .  A
C457       Br464   1.928       .  S
C458        C459   1.408       .  A
C459        C460   1.407       .  A
C459       Br466   1.934       .  S
C460        C461   1.416       .  A
C460       Br465   1.928       .  S
C461        C462   1.418       .  A
C462       Br463   1.932       .  S
C467        C468   1.416       .  A
C467        C472   1.405       .  A
C467       Br474   1.934       .  S
C468        C965   1.415   1_556  A
C469        C470   1.408       .  A
C469        C964   1.410       .  A
C469       Br476   1.925       .  S
C470        C967   1.412       .  A
C470       Br475   1.928       .  S
C471        C676   1.473       .  S
C471        C472   1.407       .  A
C471        C966   1.409   1_556  A
C472       Br473   1.931       .  S
C477        C478   1.415       .  A
C477        C482   1.410       .  A
C477       Br484   1.935       .  S
C478        C479   1.413       .  A
C479        C480   1.407       .  A
C479       Br486   1.932       .  S
C480        C481   1.411       .  A
C480       Br485   1.929       .  S
C481        C482   1.411       .  A
C482       Br483   1.926       .  S
C487        C488   1.425   1_554  A
C487        C492   1.410       .  A
C487       Br494   1.934       .  S
C488        C985   1.426       .  A
C489        C490   1.412       .  A
C489        C984   1.426       .  A
C489       Br496   1.931       .  S
C490        C987   1.405       .  A
C490       Br495   1.935       .  S
C491        C492   1.405   1_556  A
C491        C986   1.404       .  A
C492       Br493   1.933       .  S
O498       Ni505   1.921       .  S
O499       Ni505   1.920       .  S
O499        C509   1.281       .  A
O500        C510   1.282       .  A
O501        C510   1.281       .  A
O502       Ni506   1.919       .  S
O502        C509   1.282       .  A
O503        C508   1.281       .  A
O504       Ni506   1.916       .  S
O504        C507   1.281       .  A
Ni505      Ni506   2.391       .  S
C508        C987   1.478       .  S
C509        C524   1.470       .  S
C510        C523   1.470       .  S
O511       Ni519   1.921       .  S
O511        C521   1.281       .  A
O512       Ni519   1.920       .  S
O512        C522   1.282       .  A
O513       Ni519   1.918       .  S
O513        C523   1.281       .  A
O514       Ni519   1.922       .  S
O514        C524   1.282       .  A
O515       Ni520   1.918       .  S
O515        C524   1.281       .  A
O516       Ni520   1.921       .  S
O516        C523   1.282       .  A
O517       Ni520   1.916       .  S
O517        C522   1.281       .  A
O518       Ni520   1.916       .  S
O518        C521   1.281       .  A
Ni519      Ni520   2.389       .  S
C521        C549   1.469       .  S
C522        C974   1.486       .  S
O525       Ni533   1.911       .  S
O525        C535   1.280   1_545  A
O527        C537   1.282       .  A
O528       Ni533   1.917       .  S
O528        C538   1.281       .  A
O529       Ni534   1.919       .  S
O529        C538   1.281       .  A
O530        C537   1.280       .  A
O531       Ni534   1.923       .  S
O531        C536   1.283       .  A
Ni533      Ni534   2.390       .  S
C536        C964   1.480       .  S
C537        C552   1.468       .  S
C538        C551   1.468       .  S
O539       Ni547   1.913       .  S
O539        C549   1.280   1_545  A
O540       Ni547   1.912       .  S
O540        C550   1.280       .  A
O541       Ni547   1.920       .  S
O541        C551   1.282       .  A
O542       Ni547   1.921       .  S
O542        C552   1.282       .  A
O543       Ni548   1.915       .  S
O543        C552   1.281       .  A
O544       Ni548   1.916       .  S
O544        C551   1.280       .  A
O545       Ni548   1.923       .  S
O545        C550   1.282       .  A
O546       Ni548   1.923       .  S
O546        C549   1.282   1_545  A
Ni547      Ni548   2.391       .  S
C550        C954   1.478       .  S
O554       Ni561   1.918       .  S
O555       Ni561   1.924   1_556  S
O555        C565   1.283       .  A
O556        C566   1.282       .  A
O557        C566   1.280       .  A
O558       Ni562   1.916   1_556  S
O558        C565   1.280       .  A
O559        C564   1.281       .  A
O560       Ni562   1.919       .  S
O560        C563   1.281       .  A
Ni561      Ni562   2.389       .  S
C564        C944   1.486       .  S
C565        C580   1.471       .  S
C566        C579   1.468       .  S
O567       Ni575   1.925       .  S
O567        C577   1.282       .  A
O568       Ni575   1.924       .  S
O568        C578   1.283       .  A
O569       Ni575   1.917       .  S
O569        C579   1.280       .  A
O570       Ni575   1.922       .  S
O570        C580   1.281       .  A
O571       Ni576   1.919       .  S
O571        C580   1.282       .  A
O572       Ni576   1.918       .  S
O572        C579   1.282       .  A
O573       Ni576   1.914       .  S
O573        C578   1.280       .  A
O574       Ni576   1.913       .  S
O574        C577   1.281       .  A
Ni575      Ni576   2.390       .  S
C577        C605   1.470       .  S
C578        C934   1.479       .  S
O581       Ni589   1.917       .  S
O581        C591   1.281   1_455  A
O583        C593   1.282       .  A
O584       Ni589   1.917       .  S
O584        C594   1.282       .  A
O585       Ni590   1.922       .  S
O585        C594   1.281       .  A
O586        C593   1.280       .  A
O587       Ni590   1.926       .  S
O587        C592   1.283       .  A
Ni589      Ni590   2.388       .  S
C592        C924   1.494       .  S
C593        C608   1.467       .  S
C594        C607   1.470       .  S
O595       Ni603   1.915       .  S
O595        C605   1.281   1_455  A
O596       Ni603   1.914       .  S
O596        C606   1.280       .  A
O597       Ni603   1.918       .  S
O597        C607   1.280       .  A
O598       Ni603   1.917       .  S
O598        C608   1.281       .  A
O599       Ni604   1.917       .  S
O599        C608   1.281       .  A
O600       Ni604   1.921       .  S
O600        C607   1.283       .  A
O601       Ni604   1.921       .  S
O601        C606   1.282       .  A
O602       Ni604   1.924       .  S
O602        C605   1.282   1_455  A
Ni603      Ni604   2.391       .  S
C606        C917   1.475       .  S
O610       Ni617   1.923       .  S
O611       Ni617   1.918   1_556  S
O611        C621   1.281       .  A
O612        C622   1.280       .  A
O613        C622   1.282       .  A
O614       Ni618   1.916   1_556  S
O614        C621   1.281       .  A
O615        C620   1.279       .  A
O616       Ni618   1.911       .  S
O616        C619   1.280   1_545  A
Ni617      Ni618   2.390       .  S
C620        C907   1.476       .  S
C621        C636   1.466       .  S
C622        C635   1.468       .  S
O623       Ni631   1.923       .  S
O623        C633   1.282   1_545  A
O624       Ni631   1.922       .  S
O624        C634   1.283       .  A
O625       Ni631   1.919       .  S
O625        C635   1.281       .  A
O626       Ni631   1.914       .  S
O626        C636   1.280       .  A
O627       Ni632   1.919       .  S
O627        C636   1.282       .  A
O628       Ni632   1.918       .  S
O628        C635   1.281       .  A
O629       Ni632   1.917       .  S
O629        C634   1.281       .  A
O630       Ni632   1.914       .  S
O630        C633   1.281   1_545  A
Ni631      Ni632   2.389       .  S
C633        C661   1.468       .  S
C634        C894   1.488       .  S
O637       Ni645   1.913       .  S
O637        C647   1.281       .  A
O639        C649   1.281       .  A
O640       Ni645   1.919       .  S
O640        C650   1.281       .  A
O641       Ni646   1.921       .  S
O641        C650   1.282       .  A
O642        C649   1.281       .  A
O643       Ni646   1.925       .  S
O643        C648   1.283       .  A
Ni645      Ni646   2.389       .  S
C648        C887   1.486       .  S
C649        C664   1.470       .  S
C650        C663   1.471       .  S
O651       Ni659   1.911       .  S
O651        C661   1.280       .  A
O652       Ni659   1.910       .  S
O652        C662   1.279       .  A
O653       Ni659   1.922       .  S
O653        C663   1.282       .  A
O654       Ni659   1.921       .  S
O654        C664   1.282       .  A
O655       Ni660   1.918       .  S
O655        C664   1.281       .  A
O656       Ni660   1.920       .  S
O656        C663   1.281       .  A
O657       Ni660   1.921       .  S
O657        C662   1.282       .  A
O658       Ni660   1.925       .  S
O658        C661   1.282       .  A
Ni659      Ni660   2.391       .  S
C662        C874   1.473       .  S
O665       Ni673   1.923       .  S
O666       Ni673   1.927       .  S
O667       Ni673   1.915       .  S
O667        C677   1.280       .  A
O668       Ni673   1.913       .  S
O668        C678   1.280       .  A
O669       Ni674   1.926       .  S
O670       Ni674   1.921       .  S
O671       Ni674   1.909       .  S
O671        C676   1.279       .  A
O672       Ni674   1.918       .  S
O672        C675   1.281       .  A
C678        C867   1.496       .  S
O679       Ni687   1.920       .  S
O679        C689   1.282       .  A
O680       Ni687   1.926       .  S
O680        C690   1.284       .  A
O681       Ni687   1.909       .  S
O681        C691   1.279       .  A
O682       Ni687   1.909       .  S
O682        C692   1.278       .  A
O683       Ni688   1.925       .  S
O683        C692   1.284       .  A
O684       Ni688   1.926       .  S
O684        C691   1.283       .  A
O685       Ni688   1.906       .  S
O685        C690   1.278       .  A
O686       Ni688   1.911       .  S
O686        C689   1.279       .  A
Ni687      Ni688   2.388       .  S
C689        C747   1.465       .  S
C690        C854   1.478       .  S
C691        C717   1.467       .  S
C692        C957   1.491       .  S
O693       Ni701   1.926       .  S
O694       Ni701   1.918       .  S
O695       Ni701   1.921       .  S
O695        C705   1.281       .  A
O696       Ni701   1.924       .  S
O696        C706   1.282       .  A
O697       Ni702   1.919       .  S
O698       Ni702   1.917       .  S
O699       Ni702   1.934       .  S
O699        C704   1.284       .  A
O700       Ni702   1.927       .  S
O700        C703   1.283       .  A
C706        C984   1.505       .  S
O707       Ni715   1.911       .  S
O707        C717   1.281       .  A
O708       Ni715   1.922       .  S
O708        C718   1.281       .  A
O709       Ni715   1.921       .  S
O709        C719   1.282       .  A
O710       Ni715   1.924       .  S
O710        C720   1.281       .  A
O711       Ni716   1.917       .  S
O711        C720   1.281       .  A
O712       Ni716   1.920       .  S
O712        C719   1.281       .  A
O713       Ni716   1.918       .  S
O713        C718   1.281       .  A
O714       Ni716   1.924       .  S
O714        C717   1.281       .  A
Ni715      Ni716   2.385       .  S
C718        C977   1.486       .  S
C719        C773   1.472       .  S
C720        C914   1.500       .  S
O721       Ni729   1.922       .  S
O722       Ni729   1.930       .  S
O723       Ni729   1.918       .  S
O723        C733   1.282       .  A
O724       Ni729   1.915       .  S
O724        C734   1.280       .  A
O725       Ni730   1.928       .  S
O726       Ni730   1.920       .  S
O727       Ni730   1.913       .  S
O727        C732   1.280   1_556  A
O728       Ni730   1.913       .  S
O728        C731   1.280       .  A
C734        C904   1.490       .  S
O735       Ni743   1.926       .  S
O735        C745   1.282       .  A
O736       Ni743   1.929       .  S
O736        C746   1.285       .  A
O737       Ni743   1.914       .  S
O737        C747   1.280       .  A
O738       Ni743   1.915       .  S
O738        C748   1.280       .  A
O739       Ni744   1.925       .  S
O739        C748   1.283       .  A
O740       Ni744   1.917       .  S
O740        C747   1.282       .  A
O741       Ni744   1.912       .  S
O741        C746   1.279       .  A
O742       Ni744   1.906       .  S
O742        C745   1.279       .  A
Ni743      Ni744   2.390       .  S
C745        C775   1.466       .  S
C746        C897   1.488       .  S
C748        C834   1.482       .  S
O749       Ni757   1.916       .  S
O750       Ni757   1.917       .  S
O751       Ni757   1.931       .  S
O751        C761   1.284       .  A
O752       Ni757   1.921       .  S
O752        C762   1.282       .  A
O753       Ni758   1.918       .  S
O754       Ni758   1.921       .  S
O755       Ni758   1.918       .  S
O755        C760   1.282   1_556  A
O756       Ni758   1.916       .  S
O756        C759   1.281   1_556  A
C762        C947   1.480       .  S
O763       Ni771   1.917       .  S
O763        C773   1.280       .  A
O764       Ni771   1.919       .  S
O764        C774   1.282       .  A
O765       Ni771   1.924       .  S
O765        C775   1.282       .  A
O766       Ni771   1.916       .  S
O766        C776   1.281       .  A
O767       Ni772   1.917       .  S
O767        C776   1.280       .  A
O768       Ni772   1.908       .  S
O768        C775   1.280       .  A
O769       Ni772   1.916       .  S
O769        C774   1.280       .  A
O770       Ni772   1.925       .  S
O770        C773   1.283       .  A
Ni771      Ni772   2.383       .  S
C774        C937   1.491       .  S
C776        C877   1.495       .  S
O778       Ni785   1.927       .  S
O779       Ni785   1.914       .  S
O779        C789   1.280       .  A
O780        C790   1.281       .  A
O781        C790   1.282       .  A
O782       Ni786   1.920       .  S
O782        C789   1.282       .  A
O783        C788   1.280       .  A
O784       Ni786   1.910       .  S
O784        C787   1.280   1_456  A
Ni785      Ni786   2.390       .  S
C788        C864   1.478       .  S
C789        C804   1.466       .  S
C790        C803   1.471       .  S
O791       Ni799   1.921       .  S
O791        C801   1.281   1_455  A
O792       Ni799   1.918       .  S
O792        C802   1.281       .  A
O793       Ni799   1.923       .  S
O793        C803   1.282       .  A
O794       Ni799   1.914       .  S
O794        C804   1.281       .  A
O795       Ni800   1.920       .  S
O795        C804   1.281       .  A
O796       Ni800   1.917       .  S
O796        C803   1.281       .  A
O797       Ni800   1.916       .  S
O797        C802   1.281       .  A
O798       Ni800   1.916       .  S
O798        C801   1.281   1_455  A
Ni799      Ni800   2.388       .  S
C801        C829   1.469       .  S
C802        C857   1.490       .  S
O805       Ni813   1.911       .  S
O805        C815   1.280       .  A
O807        C817   1.282       .  A
O808       Ni813   1.919       .  S
O808        C818   1.281       .  A
O809       Ni814   1.917       .  S
O809        C818   1.281       .  A
O810        C817   1.281       .  A
O811       Ni814   1.924       .  S
O811        C816   1.282       .  A
Ni813      Ni814   2.391       .  S
C816        C844   1.474       .  S
C817        C832   1.469       .  S
C818        C831   1.468       .  S
O819       Ni827   1.913       .  S
O819        C829   1.280       .  A
O820       Ni827   1.914       .  S
O820        C830   1.281       .  A
O821       Ni827   1.921       .  S
O821        C831   1.282       .  A
O822       Ni827   1.918       .  S
O822        C832   1.281       .  A
O823       Ni828   1.920       .  S
O823        C832   1.281       .  A
O824       Ni828   1.914       .  S
O824        C831   1.280       .  A
O825       Ni828   1.926       .  S
O825        C830   1.283       .  A
O826       Ni828   1.924       .  S
O826        C829   1.282       .  A
Ni827      Ni828   2.388       .  S
C830        C837   1.492       .  S
C833        C834   1.410       .  A
C833        C838   1.411       .  A
C833       Br840   1.933       .  S
C834        C835   1.409       .  A
C835        C836   1.408       .  A
C835       Br842   1.929       .  S
C836        C837   1.417       .  A
C836       Br841   1.935       .  S
C837        C838   1.417       .  A
C838       Br839   1.926       .  S
C843        C848   1.408       .  A
C843       Br850   1.935       .  S
C844        C845   1.405       .  A
C845        C846   1.411       .  A
C845       Br852   1.930       .  S
C846        C847   1.422       .  A
C846       Br851   1.929       .  S
C848       Br849   1.931       .  S
C853        C854   1.409       .  A
C853        C858   1.408       .  A
C853       Br860   1.933       .  S
C854        C855   1.408       .  A
C855        C856   1.408       .  A
C855       Br862   1.934       .  S
C856        C857   1.418       .  A
C856       Br861   1.929       .  S
C857        C858   1.418       .  A
C858       Br859   1.935       .  S
C863        C868   1.412       .  A
C863       Br870   1.931       .  S
C864        C865   1.406       .  A
C865        C866   1.408       .  A
C865       Br872   1.935       .  S
C866        C867   1.421       .  A
C866       Br871   1.933       .  S
C868       Br869   1.931       .  S
C873        C874   1.406       .  A
C873        C878   1.410       .  A
C873       Br880   1.934       .  S
C874        C875   1.405       .  A
C875        C876   1.406       .  A
C875       Br882   1.935       .  S
C876        C877   1.421       .  A
C876       Br881   1.933       .  S
C877        C878   1.423       .  A
C878       Br879   1.935       .  S
C883        C884   1.413       .  A
C883        C888   1.410       .  A
C883       Br890   1.932       .  S
C885        C886   1.411       .  A
C885       Br892   1.933       .  S
C886       Br891   1.933       .  S
C887        C888   1.414       .  A
C888       Br889   1.934       .  S
C893        C894   1.414       .  A
C893        C898   1.411       .  A
C893       Br900   1.934       .  S
C894        C895   1.413       .  A
C895        C896   1.409       .  A
C895       Br902   1.927       .  S
C896        C897   1.411       .  A
C896       Br901   1.928       .  S
C897        C898   1.414       .  A
C898       Br899   1.929       .  S
C903        C904   1.417       .  A
C903        C908   1.408       .  A
C903       Br910   1.930       .  S
C905        C906   1.409       .  A
C905       Br912   1.926       .  S
C906       Br911   1.928       .  S
C907        C908   1.408       .  A
C908       Br909   1.934       .  S
C913        C914   1.424       .  A
C913        C918   1.408       .  A
C913       Br920   1.933       .  S
C914        C915   1.423       .  A
C915        C916   1.410       .  A
C915       Br922   1.932       .  S
C916        C917   1.406       .  A
C916       Br921   1.934       .  S
C917        C918   1.403       .  A
C918       Br919   1.932       .  S
C923        C924   1.417       .  A
C923        C928   1.411       .  A
C923       Br930   1.936       .  S
C925        C926   1.411       .  A
C925       Br932   1.925       .  S
C926       Br931   1.933       .  S
C927        C928   1.410       .  A
C928       Br929   1.925       .  S
C933        C934   1.407       .  A
C933        C938   1.409       .  A
C933       Br940   1.928       .  S
C934        C935   1.408       .  A
C935        C936   1.409       .  A
C935       Br942   1.933       .  S
C936        C937   1.418       .  A
C936       Br941   1.933       .  S
C937        C938   1.418       .  A
C938       Br939   1.933       .  S
C943        C948   1.408       .  A
C943       Br950   1.928       .  S
C944        C945   1.415       .  A
C945        C946   1.408       .  A
C945       Br952   1.934       .  S
C946        C947   1.409       .  A
C946       Br951   1.928       .  S
C948       Br949   1.933       .  S
C953        C954   1.406       .  A
C953        C958   1.408       .  A
C953       Br960   1.928       .  S
C954        C955   1.408       .  A
C955        C956   1.409       .  A
C955       Br962   1.934       .  S
C956        C957   1.419       .  A
C956       Br961   1.931       .  S
C957        C958   1.417       .  A
C958       Br959   1.929       .  S
C963        C964   1.411       .  A
C963        C968   1.406       .  A
C963       Br970   1.933       .  S
C965        C966   1.408       .  A
C965       Br972   1.929       .  S
C966       Br971   1.932       .  S
C967        C968   1.412       .  A
C968       Br969   1.931       .  S
C973        C974   1.414       .  A
C973        C978   1.410       .  A
C973       Br980   1.935       .  S
C974        C975   1.414       .  A
C975        C976   1.408       .  A
C975       Br982   1.931       .  S
C976        C977   1.412       .  A
C976       Br981   1.931       .  S
C977        C978   1.411       .  A
C978       Br979   1.926       .  S
C983        C984   1.425       .  A
C983        C988   1.410       .  A
C983       Br990   1.934       .  S
C985        C986   1.410       .  A
C985       Br992   1.933       .  S
C986       Br991   1.935       .  S
C987        C988   1.405       .  A
C988       Br989   1.933       .  S
