geometry optimzed in LAMMPS
_audit_creation_date              2020-11-30 
_audit_creation_method            'lammps2cif' 
_symmetry_space_group_name_H-M    'P1' 
_symmetry_Int_Tables_number       1 
_symmetry_cell_setting            triclinic 
loop_ 
_symmetry_equiv_pos_as_xyz 
  x,y,z 
_cell_length_a                    39.08874695 
_cell_length_b                    38.57045109247512 
_cell_length_c                    25.95134266960646 
_cell_angle_alpha                 89.91474890478452 
_cell_angle_beta                  89.9291327878194 
_cell_angle_gamma                 119.75797143811988 
loop_ 
_atom_site_label 
_atom_site_type_symbol 
_atom_site_fract_x 
_atom_site_fract_y 
_atom_site_fract_z 
_atom_site_charge 
Fe1        Fe  0.17665763  0.50949402  0.19950106     1.65800
Fe2        Fe  0.09381226  0.44916856  0.26501900     1.73200
Fe3        Fe  0.10920107  0.42439558  0.14560226     1.54400
O4          O  0.12830851  0.47435262  0.09400662    -0.80400
O5          O  0.08321983  0.39238748  0.27181874    -0.78700
O6          O  0.15403173  0.52945406  0.14328841    -0.82900
O7          O  0.20008245  0.48907689  0.14274624    -0.77700
O8          O  0.05579251  0.42011078  0.14151641    -0.79500
O9          O  0.14509410  0.46474100  0.31057342    -0.82200
C10         C  0.19249896  0.45441050  0.12925346     0.98500
C11         C  0.13883406  0.51146508  0.10121479     1.06000
O12         O  0.12583189  0.46057885  0.20362638    -1.11200
O13         O  0.10092699  0.50566343  0.26907995    -0.73700
O14         O  0.16489878  0.54066139  0.25499682    -0.77100
O15         O  0.16119955  0.42404854  0.14317754    -0.77800
C16         C  0.13394600  0.53671344  0.27581864     0.97400
O17         O  0.19724585  0.48808298  0.25662613    -0.75800
O18         O  0.04065376  0.43014136  0.22105705    -0.81000
C19         C  0.08035197  0.36576849  0.24130725     1.00100
C20         C  0.03178296  0.42085359  0.17324489     1.06000
O21         O  0.08728261  0.37232765  0.19286673    -0.76600
C22         C  0.18105937  0.47416249  0.30025305     1.04300
Fe23       Fe  0.99240462  0.13543811  0.37650914     1.65800
Fe24       Fe  0.96731233  0.19634889  0.31685236     1.73200
Fe25       Fe  0.01000931  0.22004148  0.43515576     1.54400
O26         O  0.97869779  0.16976035  0.48483957    -0.80400
O27         O  0.01264215  0.25304279  0.31004241    -0.78700
O28         O  0.95171041  0.11501643  0.43427682    -0.82900
O29         O  0.03619844  0.15278028  0.43054340    -0.77700
O30         O  0.96197350  0.22722989  0.44046565    -0.79500
O31         O  0.00091053  0.18006592  0.26743601    -0.82200
C32         C  0.06216319  0.18580639  0.44827465     0.98500
C33         C  0.95356853  0.13267137  0.47653616     1.06000
O34         O  0.98999150  0.18461208  0.37621709    -1.11200
O35         O  0.91869247  0.14037412  0.31497281    -0.73700
O36         O  0.94911552  0.10558852  0.32245248    -0.77100
O37         O  0.06125494  0.21759843  0.44012658    -0.77800
C38         C  0.92093189  0.10945873  0.30586895     0.97400
O39         O  0.03302715  0.15845729  0.31867385    -0.75800
O40         O  0.93405064  0.21505609  0.36288607    -0.81000
C41         C  0.03817379  0.27880765  0.33953360     1.00100
C42         C  0.93578033  0.22524926  0.41035310     1.06000
O43         O  0.04067850  0.27178523  0.38745714    -0.76600
C44         C  0.02868033  0.17186802  0.27574211     1.04300
Fe45       Fe  0.80330682  0.32423839  0.03934243     1.65800
Fe46       Fe  0.86473556  0.30060803  0.09965564     1.73200
Fe47       Fe  0.88701334  0.34515599  0.48181341     1.54400
O48         O  0.83732681  0.31465246  0.43260605    -0.80400
O49         O  0.92029793  0.34799346  0.10672074    -0.78700
O50         O  0.78353430  0.28654017  0.48378540    -0.82900
O51         O  0.82115518  0.37210049  0.48799355    -0.77700
O52         O  0.89329668  0.29601618  0.47530250    -0.79500
O53         O  0.84735132  0.33327010  0.14869026    -0.82200
C54         C  0.85403074  0.39861083  0.47106454     0.98500
C55         C  0.80087051  0.28894819  0.44120005     1.06000
O56         O  0.85240461  0.32294807  0.04001274    -1.11200
O57         O  0.80986799  0.25041665  0.10264305    -0.73700
O58         O  0.77431784  0.27987632  0.09345413    -0.77100
O59         O  0.88517524  0.39735396  0.47934677    -0.77800
C60         C  0.77889144  0.25204561  0.11132914     0.97400
O61         O  0.82525263  0.36516834  0.09736190    -0.75800
O62         O  0.88433171  0.26798363  0.05350720    -0.81000
C63         C  0.94507690  0.37472451  0.07723223     1.00100
C64         C  0.89454181  0.27012148  0.00599629     1.06000
O65         O  0.93807590  0.37664410  0.02921384    -0.76600
C66         C  0.83886115  0.36102959  0.14014495     1.04300
Fe67       Fe  0.81962606  0.48182224  0.29047667     1.65800
Fe68       Fe  0.87137107  0.58241814  0.30273602     1.73200
Fe69       Fe  0.91786746  0.53073474  0.27006427     1.54400
O70         O  0.90335122  0.48618610  0.32533313    -0.80400
O71         O  0.91353271  0.61346248  0.24735519    -0.78700
O72         O  0.84093049  0.46452689  0.35163557    -0.82900
O73         O  0.83454920  0.44877378  0.24195183    -0.77700
O74         O  0.95015480  0.57273499  0.32376914    -0.79500
O75         O  0.82716120  0.56734694  0.24798111    -0.82200
C76         C  0.86201566  0.45738910  0.21010574     0.98500
C77         C  0.87459220  0.46693089  0.35646534     1.06000
O78         O  0.86991102  0.53205111  0.28782716    -1.11200
O79         O  0.83141202  0.56097926  0.36353672    -0.73700
O80         O  0.78939271  0.49947791  0.33968385    -0.77100
O81         O  0.89319229  0.49073383  0.21055081    -0.77800
C82         C  0.79847496  0.52940365  0.36783757     0.97400
O83         O  0.80089412  0.50177694  0.22925367    -0.75800
O84         O  0.91632696  0.60067235  0.35567860    -0.81000
C85         C  0.93649378  0.60814891  0.21801166     1.00100
C86         C  0.94705238  0.59744939  0.35268901     1.06000
O87         O  0.93722692  0.57572142  0.21601889    -0.76600
C88         C  0.80533638  0.53646953  0.22076010     1.04300
Fe89       Fe  0.17597823  0.65834901  0.45944620     1.65800
Fe90       Fe  0.12868847  0.70973870  0.43881055     1.73200
Fe91       Fe  0.07805210  0.61287724  0.47727078     1.54400
O92         O  0.09251681  0.58026143  0.42546200    -0.80400
O93         O  0.09194955  0.70133588  0.99818397    -0.78700
O94         O  0.15477455  0.62019246  0.39712859    -0.82900
O95         O  0.16214520  0.61710862  0.00579827    -0.77700
O96         O  0.04756947  0.62142141  0.42020079    -0.79500
O97         O  0.17418210  0.73973469  0.49214921    -0.82200
C98         C  0.12988041  0.59425570  0.02862156     0.98500
C99         C  0.12070846  0.58889307  0.39343849     1.06000
O100        O  0.12704797  0.66039932  0.45869370    -1.11200
O101        O  0.16640611  0.72134535  0.37783335    -0.73700
O102        O  0.20960307  0.70775704  0.41257899    -0.77100
O103        O  0.09864648  0.59544863  0.01913705    -0.77800
C104        C  0.20039740  0.72555266  0.37931595     0.97400
O105        O  0.18982115  0.70182134  0.02543845    -0.75800
O106        O  0.08268175  0.68290966  0.38722912    -0.81000
C107        C  0.05910999  0.66990919  0.00586355     1.00100
C108        C  0.05161358  0.64907679  0.39019714     1.06000
O109        O  0.05198741  0.63508761  0.99158982    -0.76600
C110        C  0.19003765  0.73488654  0.02585913     1.04300
Fe111      Fe  0.99147734  0.83664971  0.13130127     1.65800
Fe112      Fe  0.04850504  0.79444916  0.12386168     1.73200
Fe113      Fe  0.94970108  0.73876607  0.10883763     1.54400
O114        O  0.91702744  0.75255871  0.16085438    -0.80400
O115        O  0.04005902  0.76295352  0.05725889    -0.78700
O116        O  0.95977911  0.81099018  0.19643088    -0.82900
O117        O  0.93938424  0.81453924  0.08866716    -0.77700
O118        O  0.96205451  0.71292606  0.16789483    -0.79500
O119        O  0.07142790  0.84640186  0.07778116    -0.82200
C120        C  0.92590176  0.78952544  0.05201368     0.98500
C121        C  0.92744712  0.77810710  0.19721625     1.06000
O122        O  0.99692396  0.78961072  0.12119602    -1.11200
O123        O  0.06345078  0.82656428  0.19235059    -0.73700
O124        O  0.04269609  0.86917674  0.17505640    -0.77100
O125        O  0.93463648  0.76215685  0.04724022    -0.77800
C126        C  0.06436227  0.85941648  0.20035426     0.97400
O127        O  0.02318409  0.86140059  0.06628573    -0.75800
O128        O  0.02798094  0.74104982  0.16637066    -0.81000
C129        C  0.01181247  0.72936405  0.04393756     1.00100
C130        C  0.99360762  0.71314445  0.17933707     1.06000
O131        O  0.97663176  0.71623113  0.05958810    -0.76600
C132        C  0.05618470  0.86482985  0.05424556     1.04300
Fe133      Fe  0.32694530  0.80632675  0.20690687     1.65800
Fe134      Fe  0.30465703  0.87020491  0.14907192     1.73200
Fe135      Fe  0.34967505  0.89192651  0.26572493     1.54400
O136        O  0.31910855  0.84195447  0.31659883    -0.80400
O137        O  0.35234686  0.92565555  0.14033630    -0.78700
O138        O  0.28832161  0.78739068  0.26646097    -0.82900
O139        O  0.37243112  0.82268087  0.25799654    -0.77700
O140        O  0.30275395  0.90004802  0.27419084    -0.79500
O141        O  0.33395607  0.85066842  0.09783460    -0.82200
C142        C  0.40008229  0.85574215  0.27320057     0.98500
C143        C  0.29254440  0.80519768  0.30916248     1.06000
O144        O  0.32701082  0.85673805  0.20729803    -1.11200
O145        O  0.25407883  0.81577024  0.14969104    -0.73700
O146        O  0.28142791  0.77786881  0.15580212    -0.77100
O147        O  0.39997548  0.88794583  0.26540285    -0.77800
C148        C  0.25383019  0.78344962  0.14122767     0.97400
O149        O  0.36558452  0.82765594  0.14755013    -0.75800
O150        O  0.27532379  0.89200672  0.19666517    -0.81000
C151        C  0.37795133  0.95111828  0.17010552     1.00100
C152        C  0.27758068  0.90076738  0.24463936     1.06000
O153        O  0.37984910  0.94381157  0.21807716    -0.76600
C154        C  0.36107451  0.84158262  0.10526283     1.04300
Fe155      Fe  0.14005329  0.99016525  0.37649687     1.65800
Fe156      Fe  0.22473516  0.01713027  0.31522549     1.73200
Fe157      Fe  0.20887198  0.97761047  0.43490345     1.54400
O158        O  0.18656130  0.00636773  0.48415073    -0.80400
O159        O  0.23454102  0.97058062  0.30922566    -0.78700
O160        O  0.15956240  0.03309977  0.43234593    -0.82900
O161        O  0.11722626  0.94679953  0.43400551    -0.77700
O162        O  0.26113649  0.02860543  0.44081351    -0.79500
O163        O  0.17453246  0.98253318  0.26701080    -0.82200
C164        C  0.12670509  0.92152913  0.44931802     0.98500
C165        C  0.17479835  0.03168521  0.47512358     1.06000
O166        O  0.19207856  0.99548869  0.37560601    -1.11200
O167        O  0.21696539  0.06592415  0.31307725    -0.73700
O168        O  0.15215868  0.03308583  0.32025059    -0.77100
O169        O  0.15842692  0.92381076  0.43535242    -0.77800
C170        C  0.18368860  0.06234487  0.30333952     0.97400
O171        O  0.12294507  0.94744141  0.31993427    -0.75800
O172        O  0.27741283  0.05103380  0.36019707    -0.81000
C173        C  0.23847016  0.94808591  0.34096816     1.00100
C174        C  0.28572709  0.05224177  0.40849226     1.06000
O175        O  0.23314420  0.94935684  0.38952296    -0.76600
C176        C  0.13958348  0.95308136  0.27597673     1.04300
Fe177      Fe  0.51835455  0.18381241  0.04072313     1.65800
Fe178      Fe  0.43275522  0.12163854  0.09758020     1.73200
Fe179      Fe  0.45359659  0.10188477  0.47972014     1.54400
O180        O  0.47316928  0.15326319  0.43225379    -0.80400
O181        O  0.42216727  0.06466743  0.10321904    -0.78700
O182        O  0.49555804  0.20634062  0.48518205    -0.82900
O183        O  0.54458926  0.16990373  0.48750890    -0.77700
O184        O  0.39879179  0.09532204  0.47245530    -0.79500
O185        O  0.48140401  0.13665345  0.14825886    -0.82200
C186        C  0.53919072  0.13702741  0.47043003     0.98500
C187        C  0.48221116  0.18955658  0.44182531     1.06000
O188        O  0.46803116  0.13447340  0.03936703    -1.11200
O189        O  0.43866619  0.17744877  0.10136215    -0.73700
O190        O  0.50319088  0.21274995  0.09537997    -0.77100
O191        O  0.50746014  0.10485813  0.47848312    -0.77800
C192        C  0.47084402  0.20834022  0.11161530     0.97400
O193        O  0.53582454  0.15990698  0.09857865    -0.75800
O194        O  0.38273496  0.10471309  0.04905624    -0.81000
C195        C  0.42253273  0.03919672  0.07321561     1.00100
C196        C  0.37579917  0.09610480  0.00092680     1.06000
O197        O  0.43268719  0.04703285  0.02561673    -0.76600
C198        C  0.51743071  0.14513536  0.14073362     1.04300
Fe199      Fe  0.83869330  0.98797317  0.12796687     1.65800
Fe200      Fe  0.78784214  0.03523859  0.10858529     1.73200
Fe201      Fe  0.74142879  0.93953130  0.15127286     1.54400
O202        O  0.75513179  0.90798879  0.09707063    -0.80400
O203        O  0.74926709  0.02871921  0.16524922    -0.78700
O204        O  0.81671593  0.94958655  0.06697699    -0.82900
O205        O  0.82338682  0.93884244  0.17474784    -0.77700
O206        O  0.70665073  0.94625801  0.09800172    -0.79500
O207        O  0.83456447  0.06757645  0.15984771    -0.82200
C208        C  0.79749341  0.92206212  0.20909497     0.98500
C209        C  0.78299797  0.91776502  0.06411869     1.06000
O210        O  0.78869890  0.98750889  0.12942793    -1.11200
O211        O  0.82396186  0.04669642  0.04552485    -0.73700
O212        O  0.86971535  0.03737579  0.08065868    -0.77100
O213        O  0.76802781  0.92699236  0.21147846    -0.77800
C214        C  0.85874497  0.05302319  0.04662164     0.97400
O215        O  0.85591091  0.02636756  0.18922132    -0.75800
O216        O  0.74038827  0.00585687  0.05971131    -0.81000
C217        C  0.72684189  0.00251467  0.19736962     1.00100
C218        C  0.70917932  0.97260717  0.06662949     1.06000
O219        O  0.72484719  0.96887520  0.20313311    -0.76600
C220        C  0.85362598  0.05831421  0.19212295     1.04300
Fe221      Fe  0.47712845  0.81537871  0.44971810     1.65800
Fe222      Fe  0.57554355  0.85712983  0.45557216     1.73200
Fe223      Fe  0.53216185  0.91349459  0.46835375     1.54400
O224        O  0.48428398  0.89923679  0.42015292    -0.80400
O225        O  0.60579368  0.89943014  0.99992076    -0.78700
O226        O  0.46875399  0.84047878  0.38508596    -0.82900
O227        O  0.44461534  0.83187160  0.00641336    -0.77700
O228        O  0.56762932  0.93637512  0.40616663    -0.79500
O229        O  0.54821746  0.80532843  0.50059169    -0.82200
C230        C  0.45458940  0.86099668  0.03641539     0.98500
C231        C  0.46874152  0.87341546  0.38446523     1.06000
O232        O  0.52877069  0.86216542  0.45767177    -1.11200
O233        O  0.55953088  0.82551385  0.38758767    -0.73700
O234        O  0.49637815  0.78365102  0.40410655    -0.77100
O235        O  0.48818592  0.89166831  0.03510431    -0.77800
C236        C  0.52791771  0.79312404  0.37946365     0.97400
O237        O  0.48563533  0.78639000  0.01098286    -0.75800
O238        O  0.60785436  0.91074547  0.41394223    -0.81000
C239        C  0.60296431  0.92235321  0.03188867     1.00100
C240        C  0.60008646  0.93746180  0.39799957     1.06000
O241        O  0.57180852  0.92439704  0.03733384    -0.76600
C242        C  0.51795967  0.79034591  0.02816268     1.04300
Fe243      Fe  0.65824429  0.17069647  0.29190799     1.65800
Fe244      Fe  0.61126244  0.07034001  0.27783260     1.73200
Fe245      Fe  0.70735528  0.12106641  0.31467826     1.54400
O246        O  0.73783616  0.16580420  0.25969416    -0.80400
O247        O  0.62153649  0.03854506  0.33334240    -0.78700
O248        O  0.69762321  0.18813986  0.23138832    -0.82900
O249        O  0.70522444  0.20344321  0.34109081    -0.77700
O250        O  0.69941043  0.07926654  0.26146779    -0.79500
O251        O  0.58070742  0.08491916  0.33146681    -0.82200
C252        C  0.72354275  0.19448986  0.37357387     0.98500
C253        C  0.72885031  0.18534371  0.22773019     1.06000
O254        O  0.65885843  0.12031853  0.29470677    -1.11200
O255        O  0.59378713  0.09255766  0.21661469    -0.73700
O256        O  0.61110686  0.15348831  0.24205639    -0.77100
O257        O  0.72096483  0.16069861  0.37417436    -0.77800
C258        C  0.59138249  0.12392838  0.21313429     0.97400
O259        O  0.61891591  0.15008611  0.35240753    -0.75800
O260        O  0.63954002  0.05266173  0.22592979    -0.81000
C261        C  0.64863166  0.04332333  0.36422648     1.00100
C262        C  0.67299577  0.05519635  0.23114504     1.06000
O263        O  0.68093105  0.07580387  0.36832024    -0.76600
C264        C  0.58889413  0.11535612  0.35949216     1.04300
Fe265      Fe  0.50481921  0.32907888  0.28904565     1.65800
Fe266      Fe  0.45512734  0.37902186  0.27103495     1.73200
Fe267      Fe  0.40699334  0.28157722  0.30864886     1.54400
O268        O  0.42190531  0.24940798  0.25637861    -0.80400
O269        O  0.41319599  0.37101207  0.32495166    -0.78700
O270        O  0.48386580  0.29029049  0.22834306    -0.82900
O271        O  0.48790823  0.28072698  0.33798799    -0.77700
O272        O  0.37550716  0.28937014  0.25242258    -0.79500
O273        O  0.50015629  0.40925488  0.32568463    -0.82200
C274        C  0.46103603  0.26412229  0.37128492     0.98500
C275        C  0.45039920  0.25852156  0.22471150     1.06000
O276        O  0.45519756  0.33004525  0.28951995    -1.11200
O277        O  0.49459545  0.39401505  0.21008732    -0.73700
O278        O  0.53670444  0.37680667  0.23995104    -0.77100
O279        O  0.43130885  0.26871568  0.37124386    -0.77800
C280        C  0.52779815  0.39595629  0.20851542     0.97400
O281        O  0.52321282  0.36819123  0.34952081    -0.75800
O282        O  0.40919659  0.35102619  0.21905221    -0.81000
C283        C  0.38856004  0.34332265  0.35388486     1.00100
C284        C  0.37837771  0.31689083  0.22302188     1.06000
O285        O  0.38693003  0.30969952  0.35846181    -0.76600
C286        C  0.52067364  0.39978693  0.35516731     1.04300
Fe287      Fe  0.14639494  0.14745631  0.12485415     1.65800
Fe288      Fe  0.24394041  0.19930267  0.10596425     1.73200
Fe289      Fe  0.19453568  0.24645897  0.14474187     1.54400
O290        O  0.14821587  0.23042274  0.09190902    -0.80400
O291        O  0.27529631  0.23806136  0.16282986    -0.78700
O292        O  0.12928710  0.16819838  0.06301925    -0.82900
O293        O  0.11336574  0.16385677  0.17161833    -0.77700
O294        O  0.23390911  0.28063844  0.08940267    -0.79500
O295        O  0.22882658  0.15157063  0.15752454    -0.82200
C296        C  0.12304727  0.19064760  0.20533209     0.98500
C297        C  0.13002132  0.20168421  0.05976246     1.06000
O298        O  0.19560177  0.19844941  0.12518868    -1.11200
O299        O  0.21984339  0.16254969  0.04289100    -0.73700
O300        O  0.16494787  0.11601746  0.07789130    -0.77100
O301        O  0.15735318  0.22028565  0.20673482    -0.77800
C302        C  0.19170103  0.12710862  0.04421105     0.97400
O303        O  0.16711971  0.13043011  0.18685041    -0.75800
O304        O  0.26348476  0.24838423  0.05729817    -0.81000
C305        C  0.27247966  0.26300078  0.19152967     1.00100
C306        C  0.25951255  0.27909801  0.06113803     1.06000
O307        O  0.24179169  0.26635757  0.19482156    -0.76600
C308        C  0.20065400  0.13224994  0.18981447     1.04300
Fe309      Fe  0.34027925  0.52280533  0.45030056     1.65800
Fe310      Fe  0.37802891  0.46191492  0.47616216     1.73200
Fe311      Fe  0.28088102  0.42165081  0.44585900     1.54400
O312        O  0.25897176  0.44272843  0.50454607    -0.80400
O313        O  0.36220931  0.41740527  0.42426188    -0.78700
O314        O  0.29896889  0.50877334  0.00876780    -0.82900
O315        O  0.29878753  0.51027172  0.39336925    -0.77700
O316        O  0.28935206  0.38592961  0.99894874    -0.79500
O317        O  0.41255751  0.50294621  0.41911206    -0.82200
C318        C  0.26901871  0.47970619  0.37585526     0.98500
C319        C  0.26958449  0.47634377  0.02491071     1.06000
O320        O  0.33296979  0.46875808  0.45726168    -1.11200
O321        O  0.39818269  0.50452881  0.03555389    -0.73700
O322        O  0.38536635  0.55011939  0.00406230    -0.77100
O323        O  0.25985842  0.44494669  0.39048301    -0.77800
C324        C  0.40287380  0.53928613  0.03557651     0.97400
O325        O  0.38118805  0.53556382  0.39396999    -0.75800
O326        O  0.34816388  0.41905893  0.03545307    -0.81000
C327        C  0.33462445  0.39631083  0.39339417     1.00100
C328        C  0.31492101  0.38780618  0.02991786     1.06000
O329        O  0.30309736  0.39866016  0.38945382    -0.76600
C330        C  0.40828678  0.52667247  0.38883512     1.04300
Fe331      Fe  0.48823907  0.66826023  0.20523132     1.65800
Fe332      Fe  0.54675811  0.64151539  0.26595812     1.73200
Fe333      Fe  0.57085924  0.68403047  0.14755288     1.54400
O334        O  0.52124121  0.65587129  0.09708570    -0.80400
O335        O  0.60229960  0.68777146  0.27306318    -0.78700
O336        O  0.46752618  0.62721206  0.14797415    -0.82900
O337        O  0.50796869  0.71294524  0.15026386    -0.77700
O338        O  0.57390247  0.63339158  0.14043222    -0.79500
O339        O  0.53007794  0.67533969  0.31503199    -0.82200
C340        C  0.54195102  0.73932531  0.13569321     0.98500
C341        C  0.48463563  0.63023129  0.10512261     1.06000
O342        O  0.53576086  0.66428136  0.20626874    -1.11200
O343        O  0.49157941  0.59236821  0.26721563    -0.73700
O344        O  0.45799432  0.62408170  0.25936313    -0.77100
O345        O  0.57200654  0.73751139  0.14823426    -0.77800
C346        C  0.46124024  0.59503987  0.27591534     0.97400
O347        O  0.51088419  0.70915041  0.26285100    -0.75800
O348        O  0.56560399  0.60803487  0.21981184    -0.81000
C349        C  0.62844924  0.71145044  0.24228278     1.00100
C350        C  0.57329629  0.60798255  0.17156384     1.06000
O351        O  0.62220486  0.71190006  0.19389056    -0.76600
C352        C  0.52235333  0.70373713  0.30649093     1.04300
Fe353      Fe  0.66438233  0.46787267  0.03694699     1.65800
Fe354      Fe  0.64451949  0.53426093  0.48029739     1.73200
Fe355      Fe  0.68580168  0.55159876  0.09976114     1.54400
O356        O  0.65269569  0.50012987  0.14667943    -0.80400
O357        O  0.69232587  0.58962970  0.47619273    -0.78700
O358        O  0.62154295  0.44758956  0.09320640    -0.82900
O359        O  0.70625014  0.48101560  0.09324803    -0.77700
O360        O  0.63907332  0.56059151  0.10646714    -0.79500
O361        O  0.67671205  0.51613173  0.43128272    -0.82200
C362        C  0.73389661  0.51350499  0.11009508     0.98500
C363        C  0.62482773  0.46447673  0.13665529     1.06000
O364        O  0.66525825  0.51862939  0.03902882    -1.11200
O365        O  0.59356995  0.48029907  0.47535865    -0.73700
O366        O  0.61965797  0.44150794  0.48306067    -0.77100
O367        O  0.73533364  0.54627368  0.10078749    -0.77800
C368        C  0.59323718  0.44811022  0.46589686     0.97400
O369        O  0.70487552  0.48999518  0.48239703    -0.75800
O370        O  0.61426034  0.55435176  0.02740072    -0.81000
C371        C  0.71829376  0.61418565  0.00907617     1.00100
C372        C  0.61482408  0.56198787  0.07572564     1.06000
O373        O  0.71854128  0.60512265  0.05658640    -0.76600
C374        C  0.70280434  0.50563070  0.43993118     1.04300
Fe375      Fe  0.85518532  0.84650203  0.37934319     1.65800
Fe376      Fe  0.76945443  0.78359359  0.43585552     1.73200
Fe377      Fe  0.79304608  0.76195534  0.31887822     1.54400
O378        O  0.81239500  0.81213219  0.26902384    -0.80400
O379        O  0.76151439  0.72761244  0.44319427    -0.78700
O380        O  0.83527283  0.86630349  0.31998227    -0.82900
O381        O  0.88413388  0.82955360  0.32759638    -0.77700
O382        O  0.73863700  0.75511399  0.31038467    -0.79500
O383        O  0.81731930  0.80163348  0.48768936    -0.82200
C384        C  0.87854994  0.79635102  0.31137710     0.98500
C385        C  0.82132383  0.84855979  0.27737617     1.06000
O386        O  0.80533749  0.79670265  0.37807437    -1.11200
O387        O  0.77359855  0.83859302  0.43620489    -0.73700
O388        O  0.83821614  0.87525691  0.43130685    -0.77100
O389        O  0.84655177  0.76452550  0.31905719    -0.77800
C390        C  0.80533799  0.87012557  0.44618539     0.97400
O391        O  0.87215278  0.82418778  0.43914297    -0.75800
O392        O  0.71925705  0.76354854  0.38787536    -0.81000
C393        C  0.76210943  0.70233264  0.41293097     1.00100
C394        C  0.71302495  0.75516346  0.33982573     1.06000
O395        O  0.77149555  0.70988972  0.36521047    -0.76600
C396        C  0.85343787  0.81060183  0.48135037     1.04300
C397        C  0.74481710  0.65444410  0.48620564    -0.15100
C398        C  0.74851549  0.66183679  0.43447627    -0.30300
H399        H  0.75745986  0.67944518  0.01660293     0.13900
H400        H  0.73701669  0.63712034  0.40744626     0.14500
C401        C  0.66804645  0.73741530  0.26460209    -0.15100
C402        C  0.67384426  0.74207917  0.31654069    -0.30300
H403        H  0.69310027  0.74927129  0.23849405     0.13900
H404        H  0.64881317  0.73179389  0.34248375     0.14500
C405        C  0.58868706  0.57616526  0.09782839    -0.15100
C406        C  0.58521183  0.57972296  0.14981362    -0.30300
H407        H  0.57625374  0.58861255  0.07108451     0.13900
H408        H  0.59612757  0.56581949  0.17660107     0.14500
C409        C  0.43667754  0.54582107  0.34642706    -0.15100
C410        C  0.42989773  0.56616039  0.30951646    -0.30300
H411        H  0.46446009  0.54581840  0.34766790     0.13900
H412        H  0.40221450  0.56641215  0.30907274     0.14500
C413        C  0.42856371  0.56748101  0.07501214    -0.15100
C414        C  0.46035701  0.60302667  0.06342860    -0.30300
H415        H  0.42232965  0.55760766  0.11488347     0.13900
H416        H  0.46884918  0.61147806  0.02351000     0.14500
C417        C  0.28588007  0.31572504  0.03313511    -0.15100
C418        C  0.30416845  0.35101514  0.05845086    -0.30300
H419        H  0.28584288  0.31475640  0.99127553     0.13900
H420        H  0.30578856  0.35205854  0.10026738     0.14500
C421        C  0.54348132  0.42748078  0.39705328    -0.15100
C422        C  0.56347526  0.41823267  0.43138207    -0.30300
H423        H  0.54580990  0.45674339  0.39778486     0.13900
H424        H  0.56164245  0.38920019  0.42987269     0.14500
C425        C  0.59591018  0.44138686  0.17762404    -0.15100
C426        C  0.55678941  0.42053581  0.16827624    -0.30300
H427        H  0.60672897  0.44272404  0.21652937     0.13900
H428        H  0.54576480  0.42246526  0.13057946     0.14500
C429        C  0.34277864  0.30774320  0.19467960    -0.15100
C430        C  0.30793152  0.28977128  0.21996577    -0.30300
H431        H  0.34407544  0.30945236  0.15284636     0.13900
H432        H  0.30664174  0.28938032  0.26183055     0.14500
C433        C  0.36161946  0.35181832  0.38381288    -0.15100
C434        C  0.34218914  0.36906707  0.36185787    -0.30300
H435        H  0.36270463  0.34988384  0.42552336     0.13900
H436        H  0.33932324  0.36954653  0.32026649     0.14500
C437        C  0.64147542  0.00873324  0.39535629    -0.15100
C438        C  0.62997481  0.97339893  0.37207640    -0.30300
H439        H  0.63740951  0.01006677  0.43661870     0.13900
H440        H  0.63342815  0.97203865  0.33068843     0.14500
C441        C  0.54622197  0.76998209  0.09876233    -0.15100
C442        C  0.51480659  0.76543476  0.07243929    -0.30300
H443        H  0.57568066  0.79360143  0.08867782     0.13900
H444        H  0.48546861  0.74150047  0.08247349     0.14500
C445        C  0.52731559  0.76629230  0.33869025    -0.15100
C446        C  0.52546948  0.73101144  0.34883817    -0.30300
H447        H  0.52907924  0.77631473  0.29914121     0.13900
H448        H  0.52609701  0.72221013  0.38846192     0.14500
C449        C  0.80545784  0.90036548  0.48004301    -0.15100
C450        C  0.77599440  0.88998429  0.02163541    -0.30300
H451        H  0.83132494  0.93000153  0.47920503     0.13900
H452        H  0.75159673  0.85957214  0.02505378     0.14500
C453        C  0.81550119  0.87163826  0.23630908    -0.15100
C454        C  0.80224102  0.89696634  0.24805599    -0.30300
H455        H  0.82080100  0.86706198  0.19645008     0.13900
H456        H  0.79329519  0.89831292  0.28734485     0.14500
C457        C  0.68264912  0.02889489  0.20255596    -0.15100
C458        C  0.70146785  0.01241629  0.22711643    -0.30300
H459        H  0.67967726  0.02762905  0.16084434     0.13900
H460        H  0.70276919  0.01190179  0.26894300     0.14500
C461        C  0.63842930  0.94719041  0.06187032    -0.15100
C462        C  0.67368613  0.96326349  0.03775877    -0.30300
H463        H  0.63634994  0.94746529  0.10362024     0.13900
H464        H  0.67560823  0.96484980  0.99593458     0.14500
C465        C  0.53954977  0.13883328  0.18283840    -0.15100
C466        C  0.56608513  0.12687063  0.17280340    -0.30300
H467        H  0.53393874  0.14379705  0.22239222     0.13900
H468        H  0.56893733  0.11837074  0.13381421     0.14500
C469        C  0.56976997  0.13789718  0.43696090    -0.15100
C470        C  0.56126470  0.10972821  0.40132288    -0.30300
H471        H  0.59835412  0.16501131  0.43667780     0.13900
H472        H  0.53249113  0.08285706  0.40103155     0.14500
C473        C  0.47776384  0.21350882  0.40076158    -0.15100
C474        C  0.46474081  0.23915126  0.41146956    -0.30300
H475        H  0.48373598  0.20903580  0.36115268     0.13900
H476        H  0.45501904  0.24058142  0.45027213     0.14500
C477        C  0.47198230  0.23900972  0.14620000    -0.15100
C478        C  0.44445647  0.23027748  0.18277292    -0.30300
H479        H  0.49879787  0.26790610  0.14623737     0.13900
H480        H  0.41810963  0.20100882  0.18367124     0.14500
C481        C  0.32623320  0.07921901  0.42919541    -0.15100
C482        C  0.33385731  0.08286247  0.48111995    -0.30300
H483        H  0.35052725  0.09154162  0.40188528     0.13900
H484        H  0.31213688  0.07534426  0.00427098     0.14500
C485        C  0.17814180  0.06017351  0.51587868    -0.15100
C486        C  0.18958588  0.09847684  0.00478744    -0.30300
H487        H  0.18112261  0.05237755  0.05648499     0.13900
H488        H  0.19277990  0.10789199  0.46424159     0.14500
C489        C  0.20741572  0.11034015  0.23154385    -0.15100
C490        C  0.18035865  0.09052354  0.26830518    -0.30300
H491        H  0.23445042  0.10884122  0.23050006     0.13900
H492        H  0.15275532  0.09092018  0.26839610     0.14500
C493        C  0.42643134  0.85870552  0.07522069    -0.15100
C494        C  0.38871052  0.84693178  0.06363592    -0.30300
H495        H  0.43718773  0.86776029  0.11427942     0.13900
H496        H  0.37855420  0.84152237  0.02396145     0.14500
C497        C  0.43081295  0.85513383  0.30448020    -0.15100
C498        C  0.44798812  0.88121824  0.34294400    -0.30300
H499        H  0.43409183  0.82880246  0.30186061     0.13900
H500        H  0.44353136  0.90677223  0.34676917     0.14500
C501        C  0.25220136  0.91520697  0.26769698    -0.15100
C502        C  0.25200951  0.92135766  0.31944567    -0.30300
H503        H  0.23711763  0.92515697  0.24154650     0.13900
H504        H  0.26565889  0.90995821  0.34583940     0.14500
C505        C  0.40440152  0.99146665  0.14745550    -0.15100
C506        C  0.40794012  0.99842896  0.09541799    -0.30300
H507        H  0.41790450  0.01648520  0.17395387     0.13900
H508        H  0.39615131  0.97343109  0.06883917     0.14500
C509        C  0.90913616  0.79632259  0.27888828    -0.15100
C510        C  0.89978936  0.77033605  0.23990571    -0.30300
H511        H  0.93848941  0.82225727  0.28114542     0.13900
H512        H  0.87004915  0.74516771  0.23651066     0.14500
C513        C  0.90006155  0.79281956  0.01347096    -0.15100
C514        C  0.87502316  0.80568056  0.52466537    -0.30300
H515        H  0.90196746  0.78425330  0.97413060     0.13900
H516        H  0.86860079  0.81079478  0.56376243     0.14500
C517        C  0.10296586  0.89152192  0.48818119    -0.15100
C518        C  0.07749027  0.89254000  0.01194956    -0.30300
H519        H  0.11065373  0.86883574  0.49806431     0.13900
H520        H  0.06895105  0.91459992  0.00209362     0.14500
C521        C  0.11657460  0.92550101  0.23325886    -0.15100
C522        C  0.09019900  0.88646869  0.24157749    -0.30300
H523        H  0.12139956  0.93736944  0.19429109     0.13900
H524        H  0.08790469  0.87374806  0.27965723     0.14500
C525        C  0.02811454  0.67609846  0.02963768    -0.15100
C526        C  0.02204987  0.70523138  0.01019070    -0.30300
H527        H  0.01591258  0.66250075  0.06676309     0.13900
H528        H  0.03636460  0.71927883  0.97403776     0.14500
C529        C  0.20896113  0.76263737  0.06869291    -0.15100
C530        C  0.22331083  0.75255852  0.10923786    -0.30300
H531        H  0.21478885  0.79313964  0.06425004     0.13900
H532        H  0.21881704  0.72247424  0.11255728     0.14500
C533        C  0.26525963  0.78145993  0.35125591    -0.15100
C534        C  0.22921498  0.75064761  0.33992324    -0.30300
H535        H  0.27399125  0.78965671  0.39109584     0.13900
H536        H  0.21934138  0.74510898  0.30011916     0.14500
C537        C  0.98790775  0.67747075  0.20662316    -0.15100
C538        C  0.96313674  0.64172264  0.18533902    -0.30300
H539        H  0.99472774  0.67988199  0.24749028     0.13900
H540        H  0.95616701  0.63964561  0.14450951     0.14500
C541        C  0.78354743  0.54147754  0.17807804    -0.15100
C542        C  0.76260558  0.51189180  0.14476599    -0.30300
H543        H  0.78292796  0.56930919  0.17582898     0.13900
H544        H  0.76270317  0.48381460  0.14755069     0.14500
C545        C  0.77011792  0.52682386  0.40785883    -0.15100
C546        C  0.73112539  0.51055268  0.39854127    -0.30300
H547        H  0.78162202  0.53940425  0.44556032     0.13900
H548        H  0.71999706  0.50147388  0.35967360     0.14500
C549        C  0.98182242  0.62364299  0.38253435    -0.15100
C550        C  0.01735883  0.64050996  0.35933969    -0.30300
H551        H  0.97916619  0.62404934  0.42421613     0.13900
H552        H  0.02009416  0.64158158  0.31759158     0.14500
C553        C  0.77726592  0.26059142  0.40031677    -0.15100
C554        C  0.74791604  0.22381830  0.41270272    -0.30300
H555        H  0.78473493  0.26909093  0.36018237     0.13900
H556        H  0.74314338  0.21406441  0.45268254     0.14500
C557        C  0.74822319  0.22341314  0.14632191    -0.15100
C558        C  0.75687072  0.20624983  0.18535514    -0.30300
H559        H  0.71942121  0.22120990  0.14474173     0.13900
H560        H  0.78600714  0.20929895  0.18773032     0.14500
C561        C  0.85719085  0.42815368  0.17037986    -0.15100
C562        C  0.84455558  0.38955908  0.18153555    -0.30300
H563        H  0.86580182  0.43897970  0.13116508     0.13900
H564        H  0.83968972  0.37937219  0.22131941     0.14500
C565        C  0.88066663  0.44551111  0.39911839    -0.15100
C566        C  0.85432478  0.42917407  0.43734963    -0.30300
H567        H  0.90582643  0.44076061  0.39713380     0.13900
H568        H  0.82876180  0.43329102  0.43858619     0.14500
C569        C  0.90864806  0.23850497  0.43196781    -0.15100
C570        C  0.90496846  0.24227164  0.48385071    -0.30300
H571        H  0.89550733  0.25004995  0.40497951     0.13900
H572        H  0.91643220  0.22899629  0.51080750     0.14500
C573        C  0.09423600  0.18678316  0.24500432    -0.15100
C574        C  0.05679695  0.17718201  0.23395906    -0.30300
H575        H  0.10469655  0.19374559  0.28447292     0.13900
H576        H  0.04714754  0.17392935  0.19413891     0.14500
C577        C  0.09197763  0.18536273  0.48206266    -0.15100
C578        C  0.10782977  0.20736689  0.01787961    -0.30300
H579        H  0.09648305  0.15979380  0.47920772     0.13900
H580        H  0.10413038  0.23348521  0.01920320     0.14500
C581        C  0.92536739  0.10850379  0.51745989    -0.15100
C582        C  0.88685421  0.07853338  0.00682447    -0.30300
H583        H  0.93371086  0.11585483  0.55757638     0.13900
H584        H  0.87627998  0.07496730  0.96739981     0.14500
C585        C  0.89245978  0.07821949  0.27183290    -0.15100
C586        C  0.87469239  0.08681071  0.23377333    -0.30300
H587        H  0.89068609  0.04920023  0.27319214     0.13900
H588        H  0.87742987  0.11623617  0.23155290     0.14500
C589        C  0.98435994  0.40268337  0.10010125    -0.15100
C590        C  0.99134900  0.40677334  0.15217461    -0.30300
H591        H  0.00899446  0.41675444  0.07340891     0.13900
H592        H  0.96679897  0.39442621  0.17909355     0.14500
C593        C  0.06391634  0.31897708  0.31623300    -0.15100
C594        C  0.06590469  0.32530620  0.26409532    -0.30300
H595        H  0.07824426  0.34420687  0.34228496     0.13900
H596        H  0.05309131  0.30001742  0.23797003     0.14500
C597        C  0.20499695  0.46823195  0.34031686    -0.15100
C598        C  0.24466692  0.48532793  0.33656620    -0.30300
H599        H  0.18991315  0.44971327  0.37355242     0.13900
H600        H  0.26013900  0.50637483  0.30560132     0.14500
C601        C  0.24705075  0.48040167  0.06755335    -0.15100
C602        C  0.21851645  0.44914338  0.09296551    -0.30300
H603        H  0.25354722  0.51047939  0.07726592     0.13900
H604        H  0.21172152  0.41896500  0.08337277     0.12700
C605        C  0.13482406  0.53542214  0.05894769    -0.15100
C606        C  0.12946146  0.56685756  0.06911833    -0.30300
H607        H  0.13653985  0.52749180  0.01925710     0.13900
H608        H  0.12492730  0.57300529  0.10860793     0.14500
C609        C  0.13802258  0.56821849  0.31163771    -0.15100
C610        C  0.11294566  0.56025954  0.35117456    -0.30300
H611        H  0.16494547  0.59696216  0.30962071     0.13900
H612        H  0.08645488  0.53117863  0.35375945     0.14500
Fe613      Fe  0.17516366  0.50519444  0.70495781     1.65800
Fe614      Fe  0.09189443  0.44129328  0.76447172     1.73200
Fe615      Fe  0.11161241  0.42052745  0.64605424     1.54400
O616        O  0.13100808  0.47188482  0.59692829    -0.80400
O617        O  0.08497812  0.38627189  0.77144136    -0.78700
O618        O  0.15249230  0.52499707  0.64951499    -0.82900
O619        O  0.20147581  0.48804782  0.64731393    -0.77700
O620        O  0.05750479  0.41484595  0.63925861    -0.79500
O621        O  0.14252053  0.45930312  0.81283694    -0.82200
C622        C  0.19536334  0.45397628  0.63284733     0.98500
C623        C  0.13963185  0.50826663  0.60612431     1.06000
O624        O  0.12565634  0.45487829  0.70527246    -1.11200
O625        O  0.09482400  0.49544226  0.76377732    -0.73700
O626        O  0.15918554  0.53255214  0.76280828    -0.77100
O627        O  0.16480505  0.42266306  0.64650385    -0.77800
C628        C  0.12559460  0.52629268  0.77745799     0.97400
O629        O  0.19553458  0.48331205  0.76060162    -0.75800
O630        O  0.03983979  0.42047487  0.71916234    -0.81000
C631        C  0.08297505  0.36039622  0.74031137     1.00100
C632        C  0.03245572  0.41369075  0.67084130     1.06000
O633        O  0.08974298  0.36750930  0.69184264    -0.76600
C634        C  0.17879809  0.46921883  0.80372258     1.04300
Fe635      Fe  0.98926716  0.13101962  0.87638001     1.65800
Fe636      Fe  0.96695215  0.19395273  0.81651806     1.73200
Fe637      Fe  0.01018136  0.21652707  0.93441844     1.54400
O638        O  0.97839544  0.16668577  0.98450461    -0.80400
O639        O  0.01390155  0.24943681  0.80927480    -0.78700
O640        O  0.94866299  0.11196224  0.93413656    -0.82900
O641        O  0.03305906  0.14717829  0.93066088    -0.77700
O642        O  0.96317070  0.22533604  0.94062600    -0.79500
O643        O  0.99889194  0.17578276  0.76718500    -0.82200
C644        C  0.06015443  0.18020817  0.94701101     0.98500
C645        C  0.95194706  0.13000675  0.97651768     1.06000
O646        O  0.98865765  0.18106251  0.87587427    -1.11200
O647        O  0.91694882  0.13902007  0.81460331    -0.73700
O648        O  0.94553512  0.10244393  0.82232249    -0.77100
O649        O  0.06044866  0.21238872  0.93741031    -0.77800
C650        C  0.91804433  0.10746577  0.80557392     0.97400
O651        O  0.03001409  0.15316465  0.81866717    -0.75800
O652        O  0.93564820  0.21483194  0.86282753    -0.81000
C653        C  0.03993926  0.27467522  0.83863959     1.00100
C654        C  0.93762132  0.22476323  0.91046670     1.06000
O655        O  0.04177155  0.26784957  0.88673083    -0.76600
C656        C  0.02637629  0.16728736  0.77591561     1.04300
Fe657      Fe  0.80392840  0.32737124  0.54170082     1.65800
Fe658      Fe  0.86430723  0.30169611  0.60014997     1.73200
Fe659      Fe  0.88764237  0.34443114  0.98129607     1.54400
O660        O  0.83854851  0.31195258  0.93122100    -0.80400
O661        O  0.92031259  0.34779397  0.60606098    -0.78700
O662        O  0.78419034  0.28327828  0.98143497    -0.82900
O663        O  0.81982763  0.36892426  0.98505449    -0.77700
O664        O  0.89618376  0.29663976  0.97596363    -0.79500
O665        O  0.84860688  0.33548131  0.65005402    -0.82200
C666        C  0.85245117  0.39597168  0.96795254     0.98500
C667        C  0.80205059  0.28582713  0.93924080     1.06000
O668        O  0.85231096  0.32463915  0.54115985    -1.11200
O669        O  0.80894891  0.25245945  0.60309951    -0.73700
O670        O  0.77447257  0.28319344  0.59558662    -0.77100
O671        O  0.88399203  0.39564594  0.97675462    -0.77800
C672        C  0.77832062  0.25462092  0.61214131     0.97400
O673        O  0.82705530  0.36822040  0.59950108    -0.75800
O674        O  0.88255162  0.26823136  0.55337366    -0.81000
C675        C  0.94568298  0.37316184  0.57581394     1.00100
C676        C  0.89192208  0.26973295  0.50558410     1.06000
O677        O  0.93847075  0.37535587  0.52804215    -0.76600
C678        C  0.84083945  0.36382538  0.64192432     1.04300
Fe679      Fe  0.82211247  0.48517152  0.79046950     1.65800
Fe680      Fe  0.87275743  0.58513120  0.80146177     1.73200
Fe681      Fe  0.91975216  0.53351894  0.77066139     1.54400
O682        O  0.90323944  0.48673208  0.82402852    -0.80400
O683        O  0.90945091  0.61393340  0.74034702    -0.78700
O684        O  0.84247822  0.46899065  0.85351864    -0.82900
O685        O  0.83846416  0.45139827  0.74510080    -0.77700
O686        O  0.95206269  0.57328732  0.82637992    -0.79500
O687        O  0.82428550  0.56687022  0.75220873    -0.82200
C688        C  0.86468109  0.46094409  0.71098940     0.98500
C689        C  0.87502895  0.46885302  0.85655523     1.06000
O690        O  0.87225047  0.53534274  0.78770924    -1.11200
O691        O  0.83708311  0.56310792  0.86686586    -0.73700
O692        O  0.79179194  0.50495392  0.83657463    -0.77100
O693        O  0.89425357  0.49554509  0.70905514    -0.77800
C694        C  0.80253608  0.53326063  0.86827769     0.97400
O695        O  0.80415887  0.50369349  0.72723865    -0.75800
O696        O  0.92291646  0.60876737  0.84762838    -0.81000
C697        C  0.93592098  0.61089578  0.71575364     1.00100
C698        C  0.95214491  0.60273262  0.84809691     1.06000
O699        O  0.94151167  0.58123749  0.71965772    -0.76600
C700        C  0.80496199  0.53703660  0.72219076     1.04300
Fe701      Fe  0.18307532  0.66883894  0.96079298     1.65800
Fe702      Fe  0.12988959  0.71361455  0.93847866     1.73200
Fe703      Fe  0.08456071  0.61322083  0.95059838     1.54400
O704        O  0.11246671  0.58878219  0.90585057    -0.80400
O705        O  0.08871422  0.70398933  0.49333753    -0.78700
O706        O  0.17606442  0.63570124  0.89641872    -0.82900
O707        O  0.15667913  0.60812321  0.50645055    -0.77700
O708        O  0.06566834  0.62449920  0.88286522    -0.79500
O709        O  0.17634974  0.74608340  0.98895394    -0.82200
C710        C  0.12908340  0.59141582  0.53887535     0.98500
C711        C  0.14615491  0.60293618  0.88357091     1.06000
O712        O  0.13194047  0.66484340  0.95018492    -1.11200
O713        O  0.16760902  0.72801745  0.87640307    -0.73700
O714        O  0.21397373  0.72102279  0.91650405    -0.77100
O715        O  0.10106568  0.59871973  0.53998016    -0.77800
C716        C  0.20290324  0.73520979  0.87999598     0.97400
O717        O  0.19361654  0.69695188  0.52141616    -0.75800
O718        O  0.08076143  0.68786949  0.89074346    -0.81000
C719        C  0.06288518  0.67692144  0.52177867     1.00100
C720        C  0.05923861  0.65285876  0.87352974     1.06000
O721        O  0.05902580  0.64232466  0.52649080    -0.76600
C722        C  0.19253815  0.72961687  0.52438698     1.04300
Fe723      Fe  0.99083243  0.83986704  0.63640195     1.65800
Fe724      Fe  0.04829209  0.79848179  0.62710868     1.73200
Fe725      Fe  0.94987003  0.74194132  0.61729530     1.54400
O726        O  0.91667965  0.75619234  0.66697043    -0.80400
O727        O  0.03802654  0.76944602  0.55869908    -0.78700
O728        O  0.95957729  0.81460600  0.70196122    -0.82900
O729        O  0.93884289  0.81668231  0.59292755    -0.77700
O730        O  0.96379321  0.71916346  0.67860675    -0.79500
O731        O  0.07117786  0.85126540  0.58353714    -0.82200
C732        C  0.92620755  0.79114686  0.55665681     0.98500
C733        C  0.92738206  0.78166271  0.70325914     1.06000
O734        O  0.99666877  0.79327478  0.62709786    -1.11200
O735        O  0.06342911  0.82908663  0.69626481    -0.73700
O736        O  0.04223987  0.87175864  0.68003846    -0.77100
O737        O  0.93455976  0.76338131  0.55414835    -0.77800
C738        C  0.06427757  0.86190174  0.70448259     0.97400
O739        O  0.02200699  0.86449288  0.57102594    -0.75800
O740        O  0.02853400  0.74368629  0.66662258    -0.81000
C741        C  0.01145595  0.73387202  0.55089862     1.00100
C742        C  0.99480133  0.71680458  0.68326278     1.06000
O743        O  0.97723864  0.71894086  0.57043025    -0.76600
C744        C  0.05515447  0.86839695  0.55904140     1.04300
Fe745      Fe  0.33346631  0.80900119  0.70710131     1.65800
Fe746      Fe  0.30820791  0.86952991  0.64646717     1.73200
Fe747      Fe  0.35346291  0.89485670  0.76310420     1.54400
O748        O  0.32373870  0.84586341  0.81497327    -0.80400
O749        O  0.35417664  0.92612332  0.63773759    -0.78700
O750        O  0.29374815  0.79027761  0.76632759    -0.82900
O751        O  0.37844592  0.82763307  0.75975107    -0.77700
O752        O  0.30592721  0.90204641  0.76999560    -0.79500
O753        O  0.34018044  0.85185886  0.59689376    -0.82200
C754        C  0.40540460  0.86132081  0.77442227     0.98500
C755        C  0.29727918  0.80904942  0.80818221     1.06000
O756        O  0.33158488  0.85836099  0.70549564    -1.11200
O757        O  0.25916581  0.81341416  0.64573525    -0.73700
O758        O  0.28909582  0.77819148  0.65462311    -0.77100
O759        O  0.40465229  0.89282322  0.76439804    -0.77800
C760        C  0.26104803  0.78210371  0.63753267     0.97400
O761        O  0.37296171  0.83066801  0.64769379    -0.75800
O762        O  0.27648926  0.88957645  0.69331748    -0.81000
C763        C  0.38005185  0.95206283  0.66681378     1.00100
C764        C  0.27950178  0.90038452  0.74070218     1.06000
O765        O  0.38280279  0.94554758  0.71465296    -0.76600
C766        C  0.36788737  0.84359958  0.60475571     1.04300
Fe767      Fe  0.14384009  0.99246886  0.87709010     1.65800
Fe768      Fe  0.22746998  0.01845730  0.81288516     1.73200
Fe769      Fe  0.21287610  0.97902614  0.93258380     1.54400
O770        O  0.19149424  0.00794518  0.98328276    -0.80400
O771        O  0.23660626  0.97129021  0.80558090    -0.78700
O772        O  0.16423778  0.03515365  0.93290603    -0.82900
O773        O  0.12129674  0.94853369  0.93434874    -0.77700
O774        O  0.26502398  0.02995310  0.93741186    -0.79500
O775        O  0.17651158  0.98443133  0.76610804    -0.82200
C776        C  0.13059548  0.92279676  0.94838527     0.98500
C777        C  0.17971066  0.03337374  0.97522210     1.06000
O778        O  0.19556287  0.99717432  0.87417059    -1.11200
O779        O  0.22028523  0.06767805  0.81132847    -0.73700
O780        O  0.15565571  0.03573203  0.82134862    -0.77100
O781        O  0.16236084  0.92531096  0.93407080    -0.77800
C782        C  0.18697606  0.06453673  0.80313512     0.97400
O783        O  0.12572003  0.95010711  0.82053973    -0.75800
O784        O  0.28083793  0.05214511  0.85665102    -0.81000
C785        C  0.24089102  0.94884031  0.83705490     1.00100
C786        C  0.28935333  0.05357147  0.90489528     1.06000
O787        O  0.23633320  0.95050264  0.88580082    -0.76600
C788        C  0.14159113  0.95543596  0.77615438     1.04300
Fe789      Fe  0.51643143  0.18522229  0.54222991     1.65800
Fe790      Fe  0.43151464  0.12105624  0.59902420     1.73200
Fe791      Fe  0.45474955  0.09993742  0.97966823     1.54400
O792        O  0.47442714  0.15098209  0.93088328    -0.80400
O793        O  0.42289207  0.06490456  0.60265041    -0.78700
O794        O  0.49785251  0.20472334  0.98289335    -0.82900
O795        O  0.54595562  0.16709699  0.98652169    -0.77700
O796        O  0.40036640  0.09392111  0.97157009    -0.79500
O797        O  0.48049480  0.13684862  0.64931343    -0.82200
C798        C  0.54010850  0.13391657  0.96984410     0.98500
C799        C  0.48367507  0.18747421  0.93998370     1.06000
O800        O  0.46652426  0.13545477  0.54031455    -1.11200
O801        O  0.43594816  0.17615216  0.60421552    -0.73700
O802        O  0.50042561  0.21276478  0.59727890    -0.77100
O803        O  0.50823725  0.10206512  0.97843228    -0.77800
C804        C  0.46787318  0.20766119  0.61354045     0.97400
O805        O  0.53469942  0.16138934  0.59918439    -0.75800
O806        O  0.38077892  0.10285457  0.55142942    -0.81000
C807        C  0.42269528  0.03993922  0.57124165     1.00100
C808        C  0.37367591  0.09527397  0.50309484     1.06000
O809        O  0.43182375  0.04834524  0.52357313    -0.76600
C810        C  0.51666085  0.14608975  0.64134324     1.04300
Fe811      Fe  0.83914399  0.98748086  0.62632798     1.65800
Fe812      Fe  0.78846283  0.03474114  0.60404725     1.73200
Fe813      Fe  0.74115274  0.93850499  0.64528460     1.54400
O814        O  0.75621198  0.90743574  0.59219281    -0.80400
O815        O  0.74906666  0.02789623  0.65960199    -0.78700
O816        O  0.81875941  0.94892765  0.56533948    -0.82900
O817        O  0.82314074  0.93871617  0.67422581    -0.77700
O818        O  0.70771065  0.94562314  0.59034958    -0.79500
O819        O  0.83434653  0.06714443  0.65650909    -0.82200
C820        C  0.79609311  0.92129229  0.70704970     0.98500
C821        C  0.78505374  0.91731525  0.56087700     1.06000
O822        O  0.78896903  0.98680491  0.62532803    -1.11200
O823        O  0.82572656  0.04652295  0.54222199    -0.73700
O824        O  0.87081970  0.03674596  0.57876561    -0.77100
O825        O  0.76600564  0.92524941  0.70693212    -0.77800
C826        C  0.86045474  0.05271130  0.54435471     0.97400
O827        O  0.85509429  0.02592115  0.68738326    -0.75800
O828        O  0.74159847  0.00584443  0.55377646    -0.81000
C829        C  0.72568603  0.00133056  0.69065434     1.00100
C830        C  0.71034642  0.97245138  0.55973323     1.06000
O831        O  0.72311570  0.96738289  0.69605697    -0.76600
C832        C  0.85277520  0.05784049  0.68972356     1.04300
Fe833      Fe  0.47231028  0.81437733  0.95350208     1.65800
Fe834      Fe  0.57205252  0.85578866  0.94955131     1.73200
Fe835      Fe  0.53099865  0.91282384  0.97945799     1.54400
O836        O  0.49158312  0.90712818  0.92121980    -0.80400
O837        O  0.59585889  0.88728516  0.52264208    -0.78700
O838        O  0.46020334  0.84281807  0.89658221    -0.82900
O839        O  0.44846554  0.83823075  0.49499858    -0.77700
O840        O  0.57577169  0.94120729  0.92830290    -0.79500
O841        O  0.55201320  0.81392433  0.00883997    -0.82200
C842        C  0.46092445  0.86427134  0.53063244     0.98500
C843        C  0.46907518  0.87908567  0.89067303     1.06000
O844        O  0.52507171  0.86088385  0.96058916    -1.11200
O845        O  0.54993042  0.81088372  0.89556073    -0.73700
O846        O  0.48545624  0.78515766  0.89769615    -0.77100
O847        O  0.49647170  0.89220603  0.53244185    -0.77800
C848        C  0.51584826  0.78558467  0.88086441     0.97400
O849        O  0.48578710  0.79082241  0.51430681    -0.75800
O850        O  0.59337745  0.89962881  0.89211613    -0.81000
C851        C  0.60349252  0.92253335  0.53129509     1.00100
C852        C  0.59595485  0.93388164  0.89650213     1.06000
O853        O  0.58272135  0.93680497  0.51387399    -0.76600
C854        C  0.51576923  0.78789461  0.52579805     1.04300
Fe855      Fe  0.65787889  0.16924270  0.79077056     1.65800
Fe856      Fe  0.61105957  0.06994498  0.77125867     1.73200
Fe857      Fe  0.70670518  0.11932726  0.80953562     1.54400
O858        O  0.73713477  0.16603454  0.75706489    -0.80400
O859        O  0.61983121  0.03615920  0.82524381    -0.78700
O860        O  0.69577374  0.18707684  0.72894428    -0.82900
O861        O  0.70655897  0.20163160  0.83794669    -0.77700
O862        O  0.69976910  0.07959588  0.75372602    -0.79500
O863        O  0.58008750  0.08398405  0.82578503    -0.82200
C864        C  0.72382325  0.19159331  0.87074101     0.98500
C865        C  0.72752962  0.18524129  0.72533926     1.06000
O866        O  0.65846609  0.11893160  0.79050124    -1.11200
O867        O  0.59631161  0.09498996  0.71058315    -0.73700
O868        O  0.60909812  0.15253660  0.74376442    -0.77100
O869        O  0.71916347  0.15690308  0.87154275    -0.77800
C870        C  0.59165857  0.12508406  0.71116904     0.97400
O871        O  0.62005626  0.14748428  0.85242038    -0.75800
O872        O  0.63956749  0.05271759  0.71903053    -0.81000
C873        C  0.64705346  0.03975737  0.85510791     1.00100
C874        C  0.67321863  0.05558330  0.72349982     1.06000
O875        O  0.67968785  0.07187296  0.85993383    -0.76600
C876        C  0.58907554  0.11311711  0.85690092     1.04300
Fe877      Fe  0.50458619  0.32868047  0.78965818     1.65800
Fe878      Fe  0.45462636  0.37836598  0.77286907     1.73200
Fe879      Fe  0.40707733  0.28127685  0.81182801     1.54400
O880        O  0.42090200  0.24906583  0.75881551    -0.80400
O881        O  0.41270374  0.37000248  0.82683201    -0.78700
O882        O  0.48250444  0.28980518  0.72922696    -0.82900
O883        O  0.48847567  0.28012222  0.83817345    -0.77700
O884        O  0.37487159  0.28927590  0.75652418    -0.79500
O885        O  0.49970549  0.40865122  0.82729606    -0.82200
C886        C  0.46188252  0.26294234  0.87170150     0.98500
C887        C  0.44887348  0.25808406  0.72641940     1.06000
O888        O  0.45504408  0.32959881  0.79151544    -1.11200
O889        O  0.49390127  0.39396123  0.71181925    -0.73700
O890        O  0.53610918  0.37656207  0.74055325    -0.77100
O891        O  0.43226202  0.26777366  0.87309600    -0.77800
C892        C  0.52712187  0.39606266  0.70984477     0.97400
O893        O  0.52357512  0.36795792  0.84993905    -0.75800
O894        O  0.40898764  0.35001552  0.72076983    -0.81000
C895        C  0.38906658  0.34284356  0.85714395     1.00100
C896        C  0.37802213  0.31613399  0.72561292     1.06000
O897        O  0.38826982  0.30970822  0.86281844    -0.76600
C898        C  0.52079526  0.39941522  0.85600253     1.04300
Fe899      Fe  0.14542156  0.14780426  0.62557627     1.65800
Fe900      Fe  0.24261825  0.19991540  0.60382319     1.73200
Fe901      Fe  0.19421760  0.24669146  0.64769220     1.54400
O902        O  0.14828448  0.23231849  0.59514541    -0.80400
O903        O  0.27542353  0.24008312  0.65893726    -0.78700
O904        O  0.12768812  0.16983462  0.56542053    -0.82900
O905        O  0.11301655  0.16336713  0.67401566    -0.77700
O906        O  0.23429810  0.28176490  0.59309786    -0.79500
O907        O  0.22938281  0.15321499  0.65639608    -0.82200
C908        C  0.12236917  0.19005841  0.70765891     0.98500
C909        C  0.12935250  0.20386920  0.56290484     1.06000
O910        O  0.19459455  0.19869784  0.62571429    -1.11200
O911        O  0.21769129  0.16186325  0.54188187    -0.73700
O912        O  0.16242828  0.11617477  0.57693284    -0.77100
O913        O  0.15645847  0.22003868  0.70913645    -0.77800
C914        C  0.18903831  0.12669599  0.54325036     0.97400
O915        O  0.16731540  0.13018796  0.68602067    -0.75800
O916        O  0.25947570  0.24780615  0.55391637    -0.81000
C917        C  0.27224893  0.26290431  0.69115945     1.00100
C918        C  0.25752143  0.27941594  0.56108076     1.06000
O919        O  0.24082032  0.26438031  0.69807651    -0.76600
C920        C  0.20139914  0.13311479  0.68868804     1.04300
Fe921      Fe  0.33985080  0.52179893  0.95131500     1.65800
Fe922      Fe  0.37798235  0.46190433  0.97887377     1.73200
Fe923      Fe  0.28101210  0.42058243  0.94766750     1.54400
O924        O  0.25877365  0.44170120  0.00570211    -0.80400
O925        O  0.36277960  0.41723970  0.92714118    -0.78700
O926        O  0.29869300  0.50977046  0.50696516    -0.82900
O927        O  0.29728594  0.50854215  0.89595353    -0.77700
O928        O  0.28894874  0.38672466  0.49707342    -0.79500
O929        O  0.41257226  0.50308727  0.92178667    -0.82200
C930        C  0.26778054  0.47772245  0.87856781     0.98500
C931        C  0.26964716  0.47735879  0.52367336     1.06000
O932        O  0.33280361  0.46801090  0.95902720    -1.11200
O933        O  0.39932981  0.50446898  0.53273485    -0.73700
O934        O  0.38475001  0.54976818  0.50460920    -0.77100
O935        O  0.25956859  0.44309791  0.89229243    -0.77800
C936        C  0.40309618  0.53882351  0.53455695     0.97400
O937        O  0.37989467  0.53374888  0.89407011    -0.75800
O938        O  0.34817839  0.41896197  0.53272421    -0.81000
C939        C  0.33534553  0.39596351  0.89609573     1.00100
C940        C  0.31450373  0.38813614  0.52772708     1.06000
O941        O  0.30372925  0.39804854  0.89167738    -0.76600
C942        C  0.40771081  0.52576784  0.89021752     1.04300
Fe943      Fe  0.48699073  0.66629870  0.70488218     1.65800
Fe944      Fe  0.54703457  0.64128320  0.76605707     1.73200
Fe945      Fe  0.57069331  0.68440419  0.64799868     1.54400
O946        O  0.52125430  0.65500886  0.59734640    -0.80400
O947        O  0.60286660  0.68685422  0.77232056    -0.78700
O948        O  0.46735073  0.62522082  0.64787735    -0.82900
O949        O  0.50575481  0.71065461  0.64922283    -0.77700
O950        O  0.57532669  0.63471427  0.64134661    -0.79500
O951        O  0.53207252  0.67665680  0.81419997    -0.82200
C952        C  0.53952558  0.73744565  0.63454771     0.98500
C953        C  0.48474261  0.62886979  0.60509176     1.06000
O954        O  0.53534965  0.66365495  0.70642501    -1.11200
O955        O  0.49188080  0.59212475  0.76963834    -0.73700
O956        O  0.45709782  0.62230131  0.75924813    -0.77100
O957        O  0.56998068  0.73689900  0.64841643    -0.77800
C958        C  0.46103736  0.59405594  0.77717419     0.97400
O959        O  0.50870813  0.70714133  0.76235044    -0.75800
O960        O  0.56450028  0.60703775  0.71965455    -0.81000
C961        C  0.62863179  0.71190257  0.74238891     1.00100
C962        C  0.57321950  0.60813981  0.67163760     1.06000
O963        O  0.62207909  0.71367305  0.69436112    -0.76600
C964        C  0.52274117  0.70385072  0.80519355     1.04300
Fe965      Fe  0.66245549  0.46789644  0.53913807     1.65800
Fe966      Fe  0.64608384  0.53465289  0.98022806     1.73200
Fe967      Fe  0.68530336  0.55298343  0.59955121     1.54400
O968        O  0.65163233  0.50252841  0.64790152    -0.80400
O969        O  0.69373448  0.59004263  0.97728665    -0.78700
O970        O  0.62015749  0.44913946  0.59581372    -0.82900
O971        O  0.70482716  0.48159464  0.59518813    -0.77700
O972        O  0.63925022  0.56288780  0.60515344    -0.79500
O973        O  0.67899296  0.51770376  0.93061399    -0.82200
C974        C  0.73264739  0.51408657  0.61188484     0.98500
C975        C  0.62364064  0.46675440  0.63870928     1.06000
O976        O  0.66408291  0.51902475  0.53962355    -1.11200
O977        O  0.59535787  0.48053342  0.97439747    -0.73700
O978        O  0.62208963  0.44217658  0.98029610    -0.77100
O979        O  0.73439076  0.54693762  0.60214325    -0.77800
C980        C  0.59522430  0.44851848  0.96429573     0.97400
O981        O  0.70752524  0.49165890  0.98107267    -0.75800
O982        O  0.61297852  0.55454258  0.52673442    -0.81000
C983        C  0.71763541  0.61396618  0.50716008     1.00100
C984        C  0.61426150  0.56313462  0.57476016     1.06000
O985        O  0.71851958  0.60548379  0.55476204    -0.76600
C986        C  0.70577420  0.50812331  0.93919208     1.04300
Fe987      Fe  0.85315229  0.84856429  0.88230722     1.65800
Fe988      Fe  0.76813183  0.78370350  0.93888039     1.73200
Fe989      Fe  0.79326783  0.76332332  0.82239762     1.54400
O990        O  0.81256387  0.81335883  0.77216608    -0.80400
O991        O  0.76176382  0.72838625  0.94650139    -0.78700
O992        O  0.83240113  0.86731871  0.82273257    -0.82900
O993        O  0.88305286  0.83268237  0.83093752    -0.77700
O994        O  0.73862093  0.75562109  0.81234212    -0.79500
O995        O  0.81626997  0.80257529  0.99072116    -0.82200
C996        C  0.87868246  0.79948277  0.81686344     0.98500
C997        C  0.81994120  0.84939057  0.77987763     1.06000
O998        O  0.80414381  0.79797917  0.88120254    -1.11200
O999        O  0.77051787  0.83795151  0.93967450    -0.73700
O1000       O  0.83495048  0.87627271  0.93404209    -0.77100
O1001       O  0.84727827  0.76727697  0.82547274    -0.77800
C1002       C  0.80175141  0.87020392  0.94892879     0.97400
O1003       O  0.87101318  0.82690525  0.94166904    -0.75800
O1004       O  0.71808889  0.76259209  0.88993300    -0.81000
C1005       C  0.76269485  0.70337812  0.91614919     1.00100
C1006       C  0.71244664  0.75476760  0.84158243     1.06000
O1007       O  0.77187136  0.71113321  0.86843762    -0.76600
C1008       C  0.85244227  0.81189162  0.98353887     1.04300
C1009       C  0.74525555  0.65505743  0.98908238    -0.15100
C1010       C  0.74966075  0.66291854  0.93745583    -0.30300
H1011       H  0.75795692  0.67908491  0.51330447     0.13900
H1012       H  0.73905220  0.63844211  0.91012606     0.14500
C1013       C  0.66804904  0.73790708  0.76545146    -0.15100
C1014       C  0.67336575  0.74138380  0.81761699    -0.30300
H1015       H  0.69333354  0.75082263  0.73970837     0.13900
H1016       H  0.64802557  0.73007782  0.84318237     0.14500
C1017       C  0.58798193  0.57688485  0.59709711    -0.15100
C1018       C  0.58448851  0.57974384  0.64916447    -0.30300
H1019       H  0.57565401  0.58969785  0.57075205     0.13900
H1020       H  0.59512694  0.56528561  0.67547671     0.14500
C1021       C  0.43635666  0.54495146  0.84801822    -0.15100
C1022       C  0.42960600  0.56497352  0.81059905    -0.30300
H1023       H  0.46435474  0.54543297  0.84997875     0.13900
H1024       H  0.40169592  0.56474016  0.80944194     0.14500
C1025       C  0.42882035  0.56644145  0.57430738    -0.15100
C1026       C  0.46077977  0.60192724  0.56308829    -0.30300
H1027       H  0.42235254  0.55625316  0.61404065     0.13900
H1028       H  0.46937467  0.61069229  0.52326709     0.14500
C1029       C  0.28316752  0.31582643  0.53212632    -0.15100
C1030       C  0.30310653  0.35133026  0.55669412    -0.30300
H1031       H  0.28199140  0.31444765  0.49028856     0.13900
H1032       H  0.30623705  0.35277427  0.59835700     0.14500
C1033       C  0.54406193  0.42727879  0.89740925    -0.15100
C1034       C  0.56503884  0.41844704  0.93053302    -0.30300
H1035       H  0.54600487  0.45636660  0.89859658     0.13900
H1036       H  0.56357035  0.38959099  0.92854724     0.14500
C1037       C  0.59473213  0.44421431  0.67993419    -0.15100
C1038       C  0.55593210  0.42107201  0.66979233    -0.30300
H1039       H  0.60523197  0.44727265  0.71932122     0.13900
H1040       H  0.54496468  0.42113622  0.63135368     0.14500
C1041       C  0.34284560  0.30646441  0.69600332    -0.15100
C1042       C  0.30764608  0.28879211  0.72029569    -0.30300
H1043       H  0.34486906  0.30813905  0.65419601     0.13900
H1044       H  0.30571014  0.28900947  0.76208387     0.14500
C1045       C  0.36228026  0.35144152  0.88711067    -0.15100
C1046       C  0.34301419  0.36872311  0.86490439    -0.30300
H1047       H  0.36327024  0.34950132  0.92882783     0.13900
H1048       H  0.34020236  0.36909613  0.82329172     0.14500
C1049       C  0.63939056  0.00480134  0.88568052    -0.15100
C1050       C  0.62242559  0.96801881  0.86430454    -0.30300
H1051       H  0.64176511  0.00831265  0.92731186     0.13900
H1052       H  0.62160543  0.96423957  0.82276093     0.14500
C1053       C  0.54338422  0.76709108  0.59617608    -0.15100
C1054       C  0.51196787  0.76241410  0.56973316    -0.30300
H1055       H  0.57278740  0.79063147  0.58568090     0.13900
H1056       H  0.48248180  0.73926147  0.58059066     0.14500
C1057       C  0.51074365  0.75559405  0.84216736    -0.15100
C1058       C  0.52850537  0.73329920  0.84566081    -0.30300
H1059       H  0.48951189  0.74980335  0.81172982     0.13900
H1060       H  0.54725687  0.73678499  0.87838719     0.14500
C1061       C  0.80109372  0.90048163  0.98187159    -0.15100
C1062       C  0.77901327  0.89001198  0.51818080    -0.30300
H1063       H  0.82606228  0.93062984  0.97933366     0.13900
H1064       H  0.75367771  0.86003886  0.51983977     0.14500
C1065       C  0.81442402  0.87180886  0.73758356    -0.15100
C1066       C  0.80020648  0.89663524  0.74736003    -0.30300
H1067       H  0.82095878  0.86725713  0.69829012     0.13900
H1068       H  0.79010217  0.89797457  0.78596470     0.14500
C1069       C  0.68272647  0.02928155  0.69464805    -0.15100
C1070       C  0.69998704  0.01132048  0.71957499    -0.30300
H1071       H  0.68117132  0.02928529  0.65281675     0.13900
H1072       H  0.69990282  0.00966182  0.76141315     0.14500
C1073       C  0.63995422  0.94783363  0.55878945    -0.15100
C1074       C  0.67426873  0.96406800  0.53247939    -0.30300
H1075       H  0.63975049  0.94459330  0.60042379     0.13900
H1076       H  0.67491437  0.96695809  0.49077229     0.14500
C1077       C  0.53929849  0.13987178  0.68277830    -0.15100
C1078       C  0.56644907  0.12897223  0.67160030    -0.30300
H1079       H  0.53334477  0.14364976  0.72266058     0.13900
H1080       H  0.56954903  0.12154129  0.63213175     0.14500
C1081       C  0.57039154  0.13408089  0.93630148    -0.15100
C1082       C  0.56132492  0.10679038  0.89908330    -0.30300
H1083       H  0.59944143  0.16055712  0.93708146     0.13900
H1084       H  0.53204230  0.08069000  0.89748167     0.14500
C1085       C  0.47831416  0.21122908  0.89915772    -0.15100
C1086       C  0.46605516  0.23743328  0.91088200    -0.30300
H1087       H  0.48316828  0.20638376  0.85921892     0.13900
H1088       H  0.45748917  0.23919876  0.95022401     0.14500
C1089       C  0.46872045  0.23851092  0.64708808    -0.15100
C1090       C  0.44210064  0.22961762  0.68473337    -0.30300
H1091       H  0.49506320  0.26778100  0.64581246     0.13900
H1092       H  0.41623344  0.20003854  0.68693031     0.14500
C1093       C  0.32974188  0.08068536  0.92563739    -0.15100
C1094       C  0.33673424  0.08507394  0.97770833    -0.30300
H1095       H  0.35429060  0.09194202  0.89876368     0.13900
H1096       H  0.30951069  0.07190492  0.50829513     0.14500
C1097       C  0.18308872  0.06151583  0.01647366    -0.15100
C1098       C  0.18616098  0.09760533  0.50392175    -0.30300
H1099       H  0.17539466  0.05099764  0.55597342     0.13900
H1100       H  0.19534681  0.10878265  0.96505636     0.14500
C1101       C  0.20914669  0.11167285  0.73019634    -0.15100
C1102       C  0.18316222  0.09263979  0.76837523    -0.30300
H1103       H  0.23602429  0.10994167  0.72790848     0.13900
H1104       H  0.15579383  0.09346470  0.76985055     0.14500
C1105       C  0.43343150  0.86176048  0.57129786    -0.15100
C1106       C  0.39495944  0.84838813  0.56220092    -0.30300
H1107       H  0.44527974  0.87189483  0.60967732     0.13900
H1108       H  0.38355614  0.84168445  0.52314302     0.14500
C1109       C  0.43578731  0.86220271  0.80782397    -0.15100
C1110       C  0.45125436  0.88834641  0.84679693    -0.30300
H1111       H  0.43962359  0.83615644  0.80663625     0.13900
H1112       H  0.44734429  0.91430331  0.84890234     0.14500
C1113       C  0.25373252  0.91470187  0.76352453    -0.15100
C1114       C  0.25413428  0.92178999  0.81522574    -0.30300
H1115       H  0.23819466  0.92405319  0.73730813     0.13900
H1116       H  0.26821730  0.91084656  0.84158988     0.14500
C1117       C  0.40605390  0.99209683  0.64391653    -0.15100
C1118       C  0.40860642  0.99908507  0.59209794    -0.30300
H1119       H  0.42023362  0.01703511  0.67045567     0.13900
H1120       H  0.39615984  0.97426037  0.56523900     0.14500
C1121       C  0.90954970  0.79970533  0.78506789    -0.15100
C1122       C  0.90017095  0.77366049  0.74629776    -0.30300
H1123       H  0.93873023  0.82593520  0.78701504     0.13900
H1124       H  0.87051181  0.74828348  0.74318354     0.14500
C1125       C  0.90172348  0.79402981  0.51578180    -0.15100
C1126       C  0.87441172  0.80545431  0.02507416    -0.30300
H1127       H  0.90516828  0.78538873  0.47709799     0.13900
H1128       H  0.86946363  0.81062219  0.06483383     0.14500
C1129       C  0.10636662  0.89141887  0.98573649    -0.15100
C1130       C  0.07566707  0.89474811  0.51548717    -0.30300
H1131       H  0.11467467  0.86912342  0.99519096     0.13900
H1132       H  0.06766025  0.91714649  0.50529605     0.14500
C1133       C  0.11765238  0.92770660  0.73447818    -0.15100
C1134       C  0.09099473  0.88913873  0.74444041    -0.30300
H1135       H  0.12185501  0.93894871  0.69521786     0.13900
H1136       H  0.08926200  0.87697550  0.78275891     0.14500
C1137       C  0.03535181  0.68673813  0.54759711    -0.15100
C1138       C  0.02295637  0.70898020  0.52201878    -0.30300
H1139       H  0.02810479  0.67909871  0.58798695     0.13900
H1140       H  0.03126599  0.71697006  0.48191414     0.14500
C1141       C  0.21411804  0.75828105  0.56590835    -0.15100
C1142       C  0.23233022  0.75027619  0.60395181    -0.30300
H1143       H  0.21686032  0.78770204  0.56343986     0.13900
H1144       H  0.23070096  0.72133080  0.60556631     0.14500
C1145       C  0.26954605  0.78672041  0.85044121    -0.15100
C1146       C  0.23156671  0.76011227  0.84005873    -0.30300
H1147       H  0.27983086  0.79275912  0.89003050     0.13900
H1148       H  0.22078471  0.75719860  0.80081628     0.14500
C1149       C  0.98909629  0.67927101  0.70529693    -0.15100
C1150       C  0.96189379  0.64485688  0.68310868    -0.30300
H1151       H  0.99876168  0.67945392  0.74458763     0.13900
H1152       H  0.95119915  0.64558672  0.64468183     0.14500
C1153       C  0.78177673  0.54156210  0.68080886    -0.15100
C1154       C  0.76155758  0.51251795  0.64641973    -0.30300
H1155       H  0.77971295  0.56864765  0.68025352     0.13900
H1156       H  0.76266821  0.48493061  0.64782399     0.14500
C1157       C  0.77396217  0.53043289  0.90830244    -0.15100
C1158       C  0.73506149  0.51482199  0.89821062    -0.30300
H1159       H  0.78501082  0.54146033  0.94670094     0.13900
H1160       H  0.72457912  0.50724320  0.85884108     0.14500
C1161       C  0.98963807  0.63197827  0.87161781    -0.15100
C1162       C  0.02331390  0.64275458  0.84525654    -0.30300
H1163       H  0.99017748  0.64039286  0.91167447     0.13900
H1164       H  0.02177559  0.63283000  0.80569489     0.14500
C1165       C  0.77880682  0.25731069  0.89804325    -0.15100
C1166       C  0.74900867  0.22055000  0.91001261    -0.30300
H1167       H  0.78646573  0.26597957  0.85799295     0.13900
H1168       H  0.74392245  0.21068873  0.94994084     0.14500
C1169       C  0.74727593  0.22554439  0.64605016    -0.15100
C1170       C  0.75554876  0.20699137  0.68356842    -0.30300
H1171       H  0.71872435  0.22394678  0.64509554     0.13900
H1172       H  0.78453838  0.20962814  0.68536514     0.14500
C1173       C  0.86019297  0.43139095  0.67179015    -0.15100
C1174       C  0.84738770  0.39274564  0.68326432    -0.30300
H1175       H  0.86871430  0.44194485  0.63246070     0.13900
H1176       H  0.84240923  0.38267578  0.72309353     0.14500
C1177       C  0.88015266  0.44580209  0.89826451    -0.15100
C1178       C  0.85223725  0.42652702  0.93423471    -0.30300
H1179       H  0.90608245  0.44231327  0.89720356     0.13900
H1180       H  0.82578009  0.42910366  0.93427793     0.14500
C1181       C  0.91149383  0.23919397  0.93227509    -0.15100
C1182       C  0.90786833  0.24290893  0.98418751    -0.30300
H1183       H  0.89868387  0.25114172  0.90536527     0.13900
H1184       H  0.91894379  0.22923717  0.01110376     0.14500
C1185       C  0.09307986  0.18564456  0.74677860    -0.15100
C1186       C  0.05514811  0.17337978  0.73494865    -0.30300
H1187       H  0.10324824  0.19401001  0.78616561     0.13900
H1188       H  0.04560425  0.16872733  0.69501386     0.14500
C1189       C  0.08984970  0.17972544  0.98107200    -0.15100
C1190       C  0.10757677  0.21077449  0.52161522    -0.30300
H1191       H  0.09265455  0.15306616  0.98069833     0.13900
H1192       H  0.10242753  0.23588779  0.52531233     0.14500
C1193       C  0.92407288  0.10677269  0.01806348    -0.15100
C1194       C  0.88918607  0.07844255  0.50520172    -0.30300
H1195       H  0.93370197  0.11314868  0.05789705     0.13900
H1196       H  0.87963118  0.07375679  0.46525496     0.14500
C1197       C  0.88915362  0.07674269  0.77134083    -0.15100
C1198       C  0.87320641  0.08620153  0.73182555    -0.30300
H1199       H  0.88597442  0.04713959  0.77358990     0.13900
H1200       H  0.87724578  0.11611747  0.72869338     0.14500
C1201       C  0.98568238  0.39885972  0.59774058    -0.15100
C1202       C  0.99262445  0.40111999  0.64958413    -0.30300
H1203       H  0.01024007  0.41232564  0.57086451     0.13900
H1204       H  0.96808626  0.38923136  0.67652319     0.14500
C1205       C  0.06704573  0.31414321  0.81501093    -0.15100
C1206       C  0.06931306  0.32010012  0.76279964    -0.30300
H1207       H  0.08160571  0.33947594  0.84087601     0.13900
H1208       H  0.05629739  0.29472922  0.73681461     0.14500
C1209       C  0.20287615  0.46421237  0.84419927    -0.15100
C1210       C  0.24264484  0.48284818  0.84040400    -0.30300
H1211       H  0.18807629  0.44501102  0.87702283     0.13900
H1212       H  0.25758854  0.50452255  0.80986315     0.14500
C1213       C  0.24745235  0.48130417  0.56706299    -0.15100
C1214       C  0.22172962  0.45015481  0.59548980    -0.30300
H1215       H  0.25204215  0.51095452  0.57522803     0.13900
H1216       H  0.21696903  0.42044471  0.58734136     0.12700
C1217       C  0.13602913  0.53310122  0.56510421    -0.15100
C1218       C  0.13017783  0.56383535  0.57744700    -0.30300
H1219       H  0.13812567  0.52636202  0.52498330     0.13900
H1220       H  0.12453734  0.56813585  0.61728185     0.14500
C1221       C  0.12128319  0.55278782  0.81445554    -0.15100
C1222       C  0.15166724  0.58044176  0.84160588    -0.30300
H1223       H  0.09161468  0.54684660  0.82302258     0.13900
H1224       H  0.18145983  0.58687088  0.83286451     0.14500
loop_ 
_geom_bond_atom_site_label_1 
_geom_bond_atom_site_label_2 
_geom_bond_distance 
_geom_bond_site_symmetry_2 
_ccdc_geom_bond_type 
Fe1          O17   2.046       .  S
Fe1           O7   2.084       .  S
Fe1          O14   2.069       .  S
Fe1           O6   2.044       .  S
Fe1          O12   1.948       .  S
Fe2           O5   2.024       .  S
Fe2           O9   2.142       .  S
Fe2          O13   2.058       .  S
Fe2          O18   2.157       .  S
Fe2          O12   1.935       .  S
Fe3          O21   2.134       .  S
Fe3           O8   2.014       .  S
Fe3          O15   2.040       .  S
Fe3           O4   2.151       .  S
Fe3          O12   1.935       .  S
O4           C11   1.292       .  A
O5           C19   1.258       .  A
O6           C11   1.273       .  A
O7           C10   1.267       .  A
O8           C20   1.259       .  A
O9           C22   1.293       .  A
C10          O15   1.255       .  A
C10         C602   1.472       .  S
C11         C605   1.491       .  S
O13          C16   1.264       .  A
O14          C16   1.263       .  A
C16         C609   1.476       .  S
O17          C22   1.277       .  A
O18          C20   1.291       .  A
C19          O21   1.284       .  A
C19         C594   1.492       .  S
C20         C590   1.498   1_455  S
C22         C597   1.491       .  S
Fe23         O39   2.038   1_655  S
Fe23         O29   2.053   1_655  S
Fe23         O36   2.058       .  S
Fe23         O28   2.036       .  S
Fe23         O34   1.945       .  S
Fe24         O27   2.026   1_655  S
Fe24         O31   2.140   1_655  S
Fe24         O35   2.050       .  S
Fe24         O40   2.137       .  S
Fe24         O34   1.940       .  S
Fe25         O43   2.137       .  S
Fe25         O30   2.034   1_455  S
Fe25         O37   2.056       .  S
Fe25         O26   2.134   1_455  S
Fe25         O34   1.941   1_455  S
O26          C33   1.290       .  A
O27          C41   1.261       .  A
O28          C33   1.275       .  A
O29          C32   1.259       .  A
O30          C42   1.261       .  A
O31          C44   1.291       .  A
C32          O37   1.262       .  A
C32         C577   1.466       .  S
C33         C581   1.479       .  S
O35          C38   1.261       .  A
O36          C38   1.259       .  A
C38         C585   1.465       .  S
O39          C44   1.274       .  A
O40          C42   1.285       .  A
C41          O43   1.287       .  A
C41         C593   1.492       .  S
C42         C569   1.496       .  S
C44         C574   1.483       .  S
Fe45         O61   2.040       .  S
Fe45         O58   2.061       .  S
Fe45        O663   2.064   1_554  S
Fe45        O662   2.037   1_554  S
Fe45         O56   1.944       .  S
Fe46         O49   2.038       .  S
Fe46         O53   2.126       .  S
Fe46         O57   2.057       .  S
Fe46         O62   2.136       .  S
Fe46         O56   1.944       .  S
Fe47         O52   2.036       .  S
Fe47         O59   2.051       .  S
Fe47         O48   2.128       .  S
Fe47        O677   2.127       .  S
Fe47        O668   1.940       .  S
O48          C55   1.288       .  A
O49          C63   1.261       .  A
O50        Fe657   2.034       .  S
O50          C55   1.275       .  A
O51        Fe657   2.052       .  S
O51          C54   1.258       .  A
O52         C676   1.262       .  A
O53          C66   1.288       .  A
C54          O59   1.261       .  A
C54         C566   1.462       .  S
C55         C553   1.476       .  S
O56        Fe659   1.940   1_554  S
O57          C60   1.263       .  A
O58          C60   1.260       .  A
C60         C557   1.470       .  S
O61          C66   1.275       .  A
O62          C64   1.285       .  A
C63          O65   1.286       .  A
C63         C589   1.494       .  S
C64         O664   1.261   1_554  A
C64        C1182   1.496   1_554  S
O65        Fe659   2.134   1_554  S
C66         C562   1.475       .  S
Fe67         O83   2.052       .  S
Fe67         O73   2.072       .  S
Fe67         O80   2.071       .  S
Fe67         O72   2.052       .  S
Fe67         O78   1.960       .  S
Fe68         O71   2.060       .  S
Fe68         O75   2.087       .  S
Fe68         O79   2.079       .  S
Fe68         O84   2.062       .  S
Fe68         O78   1.954       .  S
Fe69         O87   2.058       .  S
Fe69         O74   2.035       .  S
Fe69         O81   2.057       .  S
Fe69         O70   2.087       .  S
Fe69         O78   1.955       .  S
O70          C77   1.279       .  A
O71          C85   1.268       .  A
O72          C77   1.279       .  A
O73          C76   1.261       .  A
O74          C86   1.266       .  A
O75          C88   1.281       .  A
C76          O81   1.258       .  A
C76         C561   1.471       .  S
C77         C565   1.469       .  S
O79          C82   1.263       .  A
O80          C82   1.260       .  A
C82         C545   1.485       .  S
O83          C88   1.280       .  A
O84          C86   1.270       .  A
C85          O87   1.266       .  A
C85         C538   1.462       .  S
C86         C549   1.452       .  S
C88         C541   1.468       .  S
Fe89        O102   2.084       .  S
Fe89         O94   2.066       .  S
Fe89        O717   2.066       .  S
Fe89        O707   2.086       .  S
Fe89        O100   1.953       .  S
Fe90         O97   2.094       .  S
Fe90        O101   2.053       .  S
Fe90        O106   2.064       .  S
Fe90        O705   2.035       .  S
Fe90        O100   1.941       .  S
Fe91         O96   2.028       .  S
Fe91         O92   2.102       .  S
Fe91        O721   2.077       .  S
Fe91        O715   2.060       .  S
Fe91        O100   1.942       .  S
O92          C99   1.284       .  A
O93        Fe702   2.030       .  S
O93         C107   1.269   1_556  A
O94          C99   1.282       .  A
O95        Fe701   2.094   1_554  S
O95          C98   1.269       .  A
O96         C108   1.264       .  A
O97         C722   1.283       .  A
C98         O103   1.269       .  A
C98         C606   1.484       .  S
C99         C610   1.479       .  S
O101        C104   1.257       .  A
O102        C104   1.261       .  A
O103       Fe703   2.076   1_554  S
C104        C534   1.471       .  S
O105       Fe701   2.044   1_554  S
O105        C110   1.271       .  A
O106        C108   1.269       .  A
C107        O109   1.284   1_554  A
C107        C525   1.480       .  S
C108        C550   1.452       .  S
O109       Fe703   2.128       .  S
C110        O709   1.273   1_554  A
C110        C529   1.466       .  S
Fe111       O127   2.027   1_655  S
Fe111       O117   2.093       .  S
Fe111       O124   2.095   1_655  S
Fe111       O116   2.036       .  S
Fe111       O122   1.947       .  S
Fe112       O115   2.045       .  S
Fe112       O119   2.111       .  S
Fe112       O123   2.080       .  S
Fe112       O128   2.110       .  S
Fe112       O122   1.932   1_455  S
Fe113       O131   2.099       .  S
Fe113       O118   2.013       .  S
Fe113       O125   2.059       .  S
Fe113       O114   2.100       .  S
Fe113       O122   1.941       .  S
O114        C121   1.278       .  A
O115        C129   1.265       .  A
O116        C121   1.271       .  A
O117        C120   1.270       .  A
O118        C130   1.265       .  A
O119        C132   1.286       .  A
C120        O125   1.267       .  A
C120        C513   1.472       .  S
C121        C510   1.470       .  S
O123        C126   1.267       .  A
O124        C126   1.268       .  A
C126        C522   1.488       .  S
O127        C132   1.268       .  A
O128        C130   1.280   1_455  A
C129        O131   1.272   1_455  A
C129        C526   1.471       .  S
C130        C537   1.462       .  S
C132        C518   1.467       .  S
Fe133       O149   2.022       .  S
Fe133       O139   2.052       .  S
Fe133       O146   2.050       .  S
Fe133       O138   2.024       .  S
Fe133       O144   1.943       .  S
Fe134       O137   2.035       .  S
Fe134       O141   2.122       .  S
Fe134       O145   2.049       .  S
Fe134       O150   2.122       .  S
Fe134       O144   1.941       .  S
Fe135       O153   2.138       .  S
Fe135       O140   2.020       .  S
Fe135       O147   2.047       .  S
Fe135       O136   2.142       .  S
Fe135       O144   1.934       .  S
O136        C143   1.290       .  A
O137        C151   1.262       .  A
O138        C143   1.272       .  A
O139        C142   1.259       .  A
O140        C152   1.259       .  A
O141        C154   1.286       .  A
C142        O147   1.260       .  A
C142        C497   1.460       .  S
C143        C533   1.481       .  S
O145        C148   1.261       .  A
O146        C148   1.259       .  A
C148        C530   1.458       .  S
O149        C154   1.271       .  A
O150        C152   1.282       .  A
C151        O153   1.286       .  A
C151        C505   1.495       .  S
C152        C501   1.483       .  S
C154        C494   1.467       .  S
Fe155       O171   2.057       .  S
Fe155       O161   2.081       .  S
Fe155       O168   2.076   1_565  S
Fe155       O160   2.045   1_565  S
Fe155       O166   1.940       .  S
Fe156       O159   2.020   1_545  S
Fe156       O163   2.147   1_545  S
Fe156       O167   2.050       .  S
Fe156       O172   2.156       .  S
Fe156       O166   1.927   1_545  S
Fe157       O175   2.122       .  S
Fe157       O162   2.020   1_565  S
Fe157       O169   2.033       .  S
Fe157       O158   2.141   1_565  S
Fe157       O166   1.930       .  S
O158        C165   1.290       .  A
O159        C173   1.259       .  A
O160        C165   1.274       .  A
O161        C164   1.266       .  A
O162        C174   1.259       .  A
O163        C176   1.292       .  A
C164        O169   1.252       .  A
C164        C517   1.465       .  S
C165        C485   1.485       .  S
O167        C170   1.264       .  A
O168        C170   1.266       .  A
C170        C490   1.471       .  S
O171        C176   1.276       .  A
O172        C174   1.290       .  A
C173        O175   1.282       .  A
C173        C502   1.482       .  S
C174        C481   1.499       .  S
C176        C521   1.492       .  S
Fe177       O193   2.048       .  S
Fe177       O190   2.066       .  S
Fe177       O795   2.061   1_554  S
Fe177       O794   2.046   1_554  S
Fe177       O188   1.943       .  S
Fe178       O181   2.029       .  S
Fe178       O185   2.144       .  S
Fe178       O189   2.050       .  S
Fe178       O194   2.139       .  S
Fe178       O188   1.935       .  S
Fe179       O184   2.038       .  S
Fe179       O191   2.051       .  S
Fe179       O180   2.125       .  S
Fe179       O809   2.128       .  S
Fe179       O800   1.940       .  S
O180        C187   1.287       .  A
O181        C195   1.260       .  A
O182       Fe789   2.045       .  S
O182        C187   1.275       .  A
O183       Fe789   2.055       .  S
O183        C186   1.259       .  A
O184        C808   1.262       .  A
O185        C198   1.292       .  A
C186        O191   1.262       .  A
C186        C469   1.463       .  S
C187        C473   1.475       .  S
O188       Fe791   1.941   1_554  S
O189        C192   1.260       .  A
O190        C192   1.261       .  A
C192        C477   1.469       .  S
O193        C198   1.276       .  A
O194        C196   1.287       .  A
C195        O197   1.286       .  A
C195        C506   1.495   1_545  S
C196        O796   1.260   1_554  A
C196       C1094   1.495   1_554  S
O197       Fe791   2.138   1_554  S
C198        C465   1.487       .  S
Fe199       O215   2.048   1_565  S
Fe199       O205   2.071       .  S
Fe199       O212   2.075   1_565  S
Fe199       O204   2.045       .  S
Fe199       O210   1.946       .  S
Fe200       O203   2.029       .  S
Fe200       O207   2.100       .  S
Fe200       O211   2.059       .  S
Fe200       O216   2.063       .  S
Fe200       O210   1.934   1_545  S
Fe201       O219   2.060       .  S
Fe201       O206   2.045       .  S
Fe201       O213   2.063       .  S
Fe201       O202   2.097       .  S
Fe201       O210   1.939       .  S
O202        C209   1.284       .  A
O203        C217   1.265       .  A
O204        C209   1.282       .  A
O205        C208   1.258       .  A
O206        C218   1.266       .  A
O207        C220   1.284       .  A
C208        O213   1.259       .  A
C208        C454   1.473       .  S
C209        C450   1.467       .  S
O211        C214   1.257       .  A
O212        C214   1.259       .  A
C214        C582   1.471       .  S
O215        C220   1.281       .  A
O216        C218   1.269   1_545  A
C217        O219   1.269   1_545  A
C217        C458   1.449       .  S
C218        C462   1.457       .  S
C220        C586   1.470       .  S
Fe221       O234   2.093       .  S
Fe221       O226   2.042       .  S
Fe221       O849   2.034       .  S
Fe221       O839   2.096       .  S
Fe221       O232   1.939       .  S
Fe222       O229   2.090       .  S
Fe222       O233   2.060       .  S
Fe222       O238   2.106       .  S
Fe222       O837   2.026       .  S
Fe222       O232   1.933       .  S
Fe223       O228   2.020       .  S
Fe223       O224   2.087       .  S
Fe223       O853   2.087       .  S
Fe223       O847   2.059       .  S
Fe223       O232   1.938       .  S
O224        C231   1.274       .  A
O225       Fe834   2.022       .  S
O225        C239   1.257   1_556  A
O226        C231   1.271       .  A
O227       Fe833   2.058   1_554  S
O227        C230   1.260       .  A
O228        C240   1.266       .  A
O229        C854   1.280       .  A
C230        O235   1.258       .  A
C230        C493   1.461       .  S
C231        C498   1.467       .  S
O233        C236   1.265       .  A
O234        C236   1.270       .  A
O235       Fe835   2.046   1_554  S
C236        C445   1.473       .  S
O237       Fe833   2.054   1_554  S
O237        C242   1.276       .  A
O238        C240   1.279       .  A
C239        O241   1.267       .  A
C239        C461   1.460       .  S
C240        C438   1.458       .  S
O241       Fe835   2.074   1_554  S
C242        O841   1.283       .  A
C242        C442   1.462       .  S
Fe243       O259   2.059       .  S
Fe243       O249   2.075       .  S
Fe243       O256   2.075       .  S
Fe243       O248   2.062       .  S
Fe243       O254   1.956       .  S
Fe244       O247   2.056       .  S
Fe244       O251   2.084       .  S
Fe244       O255   2.075       .  S
Fe244       O260   2.061       .  S
Fe244       O254   1.953       .  S
Fe245       O263   2.062       .  S
Fe245       O250   2.028       .  S
Fe245       O257   2.051       .  S
Fe245       O246   2.093       .  S
Fe245       O254   1.952       .  S
O246        C253   1.281       .  A
O247        C261   1.268       .  A
O248        C253   1.281       .  A
O249        C252   1.260       .  A
O250        C262   1.265       .  A
O251        C264   1.281       .  A
C252        O257   1.256       .  A
C252        C554   1.468       .  S
C253        C558   1.475       .  S
O255        C258   1.262       .  A
O256        C258   1.261       .  A
C258        C466   1.483       .  S
O259        C264   1.282       .  A
O260        C262   1.270       .  A
C261        O263   1.267       .  A
C261        C437   1.462       .  S
C262        C457   1.450       .  S
C264        C470   1.468       .  S
Fe265       O281   2.047       .  S
Fe265       O271   2.073       .  S
Fe265       O278   2.068       .  S
Fe265       O270   2.046       .  S
Fe265       O276   1.958       .  S
Fe266       O269   2.057       .  S
Fe266       O273   2.108       .  S
Fe266       O277   2.079       .  S
Fe266       O282   2.072       .  S
Fe266       O276   1.950       .  S
Fe267       O285   2.076       .  S
Fe267       O272   2.026       .  S
Fe267       O279   2.063       .  S
Fe267       O268   2.107       .  S
Fe267       O276   1.947       .  S
O268        C275   1.284       .  A
O269        C283   1.268       .  A
O270        C275   1.277       .  A
O271        C274   1.260       .  A
O272        C284   1.265       .  A
O273        C286   1.286       .  A
C274        O279   1.259       .  A
C274        C474   1.474       .  S
C275        C478   1.476       .  S
O277        C280   1.263       .  A
O278        C280   1.260       .  A
C280        C426   1.484       .  S
O281        C286   1.279       .  A
O282        C284   1.273       .  A
C283        O285   1.272       .  A
C283        C433   1.470       .  S
C284        C429   1.455       .  S
C286        C421   1.476       .  S
Fe287       O303   2.050       .  S
Fe287       O293   2.085       .  S
Fe287       O300   2.087       .  S
Fe287       O292   2.047       .  S
Fe287       O298   1.953       .  S
Fe288       O291   2.027       .  S
Fe288       O295   2.107       .  S
Fe288       O299   2.064       .  S
Fe288       O304   2.078       .  S
Fe288       O298   1.938       .  S
Fe289       O307   2.072       .  S
Fe289       O294   2.036       .  S
Fe289       O301   2.062       .  S
Fe289       O290   2.107       .  S
Fe289       O298   1.941       .  S
O290        C297   1.285       .  A
O291        C305   1.265       .  A
O292        C297   1.280       .  A
O293        C296   1.262       .  A
O294        C306   1.265       .  A
O295        C308   1.285       .  A
C296        O301   1.259       .  A
C296        C573   1.477       .  S
C297        C578   1.474       .  S
O299        C302   1.260       .  A
O300        C302   1.262       .  A
C302        C486   1.479       .  S
O303        C308   1.280       .  A
O304        C306   1.273       .  A
C305        O307   1.272       .  A
C305        C430   1.454       .  S
C306        C417   1.461       .  S
C308        C489   1.475       .  S
Fe309       O325   2.036       .  S
Fe309       O315   2.068       .  S
Fe309       O934   2.075       .  S
Fe309       O926   2.059       .  S
Fe309       O320   1.967       .  S
Fe310       O313   2.025       .  S
Fe310       O317   2.094       .  S
Fe310       O933   2.048       .  S
Fe310       O938   2.081       .  S
Fe310       O320   1.969       .  S
Fe311       O329   2.109       .  S
Fe311       O323   2.069       .  S
Fe311       O312   2.099       .  S
Fe311       O928   2.024       .  S
Fe311       O320   1.966       .  S
O312        C931   1.286       .  A
O313        C327   1.265       .  A
O314       Fe921   2.055   1_554  S
O314        C319   1.277       .  A
O315        C318   1.262       .  A
O316       Fe923   2.023       .  S
O316        C328   1.257   1_556  A
O317        C330   1.278       .  A
C318        O323   1.261       .  A
C318        C598   1.483       .  S
C319        O924   1.286       .  A
C319        C601   1.470       .  S
O321       Fe922   2.052   1_554  S
O321        C324   1.260       .  A
O322       Fe921   2.077   1_554  S
O322        C324   1.263       .  A
C324        C413   1.470       .  S
O325        C330   1.272       .  A
O326       Fe922   2.079   1_554  S
O326        C328   1.268       .  A
C327        O329   1.284       .  A
C327        C434   1.474       .  S
C328        C418   1.464       .  S
C330        C409   1.473       .  S
Fe331       O347   2.033       .  S
Fe331       O337   2.067       .  S
Fe331       O344   2.065       .  S
Fe331       O336   2.027       .  S
Fe331       O342   1.939       .  S
Fe332       O335   2.022       .  S
Fe332       O339   2.144       .  S
Fe332       O343   2.046       .  S
Fe332       O348   2.143       .  S
Fe332       O342   1.931       .  S
Fe333       O351   2.121       .  S
Fe333       O338   2.024       .  S
Fe333       O345   2.041       .  S
Fe333       O334   2.139       .  S
Fe333       O342   1.933       .  S
O334        C341   1.290       .  A
O335        C349   1.259       .  A
O336        C341   1.272       .  A
O337        C340   1.264       .  A
O338        C350   1.260       .  A
O339        C352   1.291       .  A
C340        O345   1.254       .  A
C340        C441   1.465       .  S
C341        C414   1.480       .  S
O343        C346   1.260       .  A
O344        C346   1.263       .  A
C346        C410   1.464       .  S
O347        C352   1.273       .  A
O348        C350   1.288       .  A
C349        O351   1.281       .  A
C349        C401   1.483       .  S
C350        C406   1.493       .  S
C352        C446   1.485       .  S
Fe353       O359   2.063       .  S
Fe353       O358   2.059       .  S
Fe353       O981   2.060   1_554  S
Fe353       O978   2.064   1_554  S
Fe353       O364   1.942       .  S
Fe354       O357   2.025       .  S
Fe354       O361   2.136       .  S
Fe354       O365   2.050       .  S
Fe354       O982   2.131       .  S
Fe354       O976   1.936       .  S
Fe355       O373   2.127       .  S
Fe355       O360   2.029       .  S
Fe355       O367   2.046       .  S
Fe355       O356   2.130       .  S
Fe355       O364   1.934       .  S
O356        C363   1.288       .  A
O357        C983   1.260       .  A
O358        C363   1.277       .  A
O359        C362   1.260       .  A
O360        C372   1.261       .  A
O361        C374   1.290       .  A
C362        O367   1.260       .  A
C362        C542   1.464       .  S
C363        C425   1.482       .  S
O364       Fe966   1.932   1_554  S
O365        C368   1.260       .  A
O366       Fe965   2.067       .  S
O366        C368   1.262       .  A
C368        C422   1.469       .  S
O369       Fe965   2.057       .  S
O369        C374   1.277       .  A
O370       Fe966   2.136   1_554  S
O370        C372   1.286       .  A
C371        O373   1.282       .  A
C371        O969   1.259   1_554  A
C371       C1009   1.487   1_554  S
C372        C405   1.492       .  S
C374        C546   1.484       .  S
Fe375       O391   2.038       .  S
Fe375       O381   2.060       .  S
Fe375       O388   2.055       .  S
Fe375       O380   2.038       .  S
Fe375       O386   1.942       .  S
Fe376       O379   2.032       .  S
Fe376       O383   2.124       .  S
Fe376       O387   2.046       .  S
Fe376       O392   2.122       .  S
Fe376       O386   1.939       .  S
Fe377       O395   2.121       .  S
Fe377       O382   2.021       .  S
Fe377       O389   2.044       .  S
Fe377       O378   2.128       .  S
Fe377       O386   1.938       .  S
O378        C385   1.287       .  A
O379        C393   1.262       .  A
O380        C385   1.273       .  A
O381        C384   1.261       .  A
O382        C394   1.259       .  A
O383        C396   1.286       .  A
C384        O389   1.259       .  A
C384        C509   1.463       .  S
C385        C453   1.476       .  S
O387        C390   1.261       .  A
O388        C390   1.259       .  A
C390        C449   1.459       .  S
O391        C396   1.275       .  A
O392        C394   1.282       .  A
C393        O395   1.283       .  A
C393        C398   1.486       .  S
C394        C402   1.484       .  S
C396        C514   1.474       .  S
C397        C983   1.487       .  S
C397        C398   1.364       .  D
C397       H1011   1.086       .  S
C398        H400   1.086       .  S
H399       C1009   1.086   1_554  S
C401        C402   1.364       .  D
C401        H403   1.086       .  S
C402        H404   1.086       .  S
C405        C406   1.370       .  D
C405        H407   1.086       .  S
C406        H408   1.086       .  S
C409        C410   1.345       .  D
C409        H411   1.087       .  S
C410        H412   1.087       .  S
C413        C414   1.349       .  D
C413        H415   1.087       .  S
C414        H416   1.086       .  S
C417        C418   1.354       .  D
C417        H419   1.087   1_554  S
C418        H420   1.087       .  S
C421        C422   1.345       .  D
C421        H423   1.087       .  S
C422        H424   1.087       .  S
C425        C426   1.351       .  D
C425        H427   1.086       .  S
C426        H428   1.087       .  S
C429        C430   1.351       .  D
C429        H431   1.087       .  S
C430        H432   1.087       .  S
C433        C434   1.359       .  D
C433        H435   1.087       .  S
C434        H436   1.086       .  S
C437        C438   1.349   1_545  D
C437        H439   1.087       .  S
C438        H440   1.087       .  S
C441        C442   1.339       .  D
C441        H443   1.087       .  S
C442        H444   1.088       .  S
C445        C446   1.352       .  D
C445        H447   1.086       .  S
C446        H448   1.087       .  S
C449       C1062   1.339       .  D
C449        H451   1.087       .  S
C450       C1061   1.339   1_554  D
C450        H452   1.087       .  S
C453        C454   1.349       .  D
C453        H455   1.086       .  S
C454        H456   1.087       .  S
C457        C458   1.347       .  D
C457        H459   1.087       .  S
C458        H460   1.087       .  S
C461        C462   1.350       .  D
C461        H463   1.087       .  S
C462        H464   1.087   1_554  S
C465        C466   1.353       .  D
C465        H467   1.086       .  S
C466        H468   1.087       .  S
C469        C470   1.338       .  D
C469        H471   1.087       .  S
C470        H472   1.087       .  S
C473        C474   1.347       .  D
C473        H475   1.087       .  S
C474        H476   1.087       .  S
C477        C478   1.345       .  D
C477        H479   1.087       .  S
C478        H480   1.087       .  S
C481        C482   1.373       .  D
C481        H483   1.086       .  S
C482        C808   1.497       .  S
C482       H1096   1.086       .  S
H484       C1094   1.086   1_554  S
C485       C1098   1.352       .  D
C485       H1099   1.086       .  S
C486       C1097   1.352       .  D
C486       H1100   1.087   1_554  S
H487       C1097   1.086       .  S
H488       C1098   1.087       .  S
C489        C490   1.344       .  D
C489        H491   1.087       .  S
C490        H492   1.087       .  S
C493        C494   1.344       .  D
C493        H495   1.087       .  S
C494        H496   1.087       .  S
C497        C498   1.339       .  D
C497        H499   1.087       .  S
C498        H500   1.087       .  S
C501        C502   1.365       .  D
C501        H503   1.086       .  S
C502        H504   1.086       .  S
C505        C506   1.370       .  D
C505        H507   1.086   1_565  S
C506        H508   1.086       .  S
C509        C510   1.342       .  D
C509        H511   1.087       .  S
C510        H512   1.087       .  S
C513       C1126   1.348       .  D
C513        H515   1.087   1_554  S
C514       C1125   1.345       .  D
C514        H516   1.087       .  S
C517       C1130   1.337       .  D
C517        H519   1.087       .  S
C518       C1129   1.336   1_554  D
C518        H520   1.087       .  S
C521        C522   1.354       .  D
C521        H523   1.086       .  S
C522        H524   1.086       .  S
C525        C526   1.355       .  D
C525        H527   1.086       .  S
C526        H528   1.088   1_554  S
C529        C530   1.338       .  D
C529        H531   1.088       .  S
C530        H532   1.087       .  S
C533        C534   1.351       .  D
C533        H535   1.086       .  S
C534        H536   1.087       .  S
C537        C538   1.350       .  D
C537        H539   1.087       .  S
C538        H540   1.087       .  S
C541        C542   1.341       .  D
C541        H543   1.087       .  S
C542        H544   1.087       .  S
C545        C546   1.352       .  D
C545        H547   1.087       .  S
C546        H548   1.086       .  S
C549        C550   1.347   1_655  D
C549        H551   1.087       .  S
C550        H552   1.087       .  S
C553        C554   1.347       .  D
C553        H555   1.087       .  S
C554        H556   1.087       .  S
C557        C558   1.341       .  D
C557        H559   1.087       .  S
C558        H560   1.087       .  S
C561        C562   1.346       .  D
C561        H563   1.087       .  S
C562        H564   1.087       .  S
C565        C566   1.339       .  D
C565        H567   1.087       .  S
C566        H568   1.087       .  S
C569        C570   1.369       .  D
C569        H571   1.086       .  S
C570        C676   1.496       .  S
C570        H572   1.086       .  S
C573        C574   1.351       .  D
C573        H575   1.087       .  S
C574        H576   1.086       .  S
C577       C1190   1.341       .  D
C577        H579   1.087       .  S
C578       C1189   1.343   1_554  D
C578        H580   1.087       .  S
C581       C1194   1.349       .  D
C581        H583   1.087       .  S
C582       C1193   1.348       .  D
C582        H584   1.087   1_554  S
C585        C586   1.340       .  D
C585        H587   1.087       .  S
C586        H588   1.087       .  S
C589        C590   1.373       .  D
C589        H591   1.086   1_655  S
C590        H592   1.086       .  S
C593        C594   1.370       .  D
C593        H595   1.086       .  S
C594        H596   1.086       .  S
C597        C598   1.354       .  D
C597        H599   1.087       .  S
C598        H600   1.086       .  S
C601        C602   1.339       .  D
C601        H603   1.087       .  S
C602        H604   1.087       .  S
C605        C606   1.355       .  D
C605        H607   1.086       .  S
C606        H608   1.086       .  S
C609        C610   1.344       .  D
C609        H611   1.087       .  S
C610        H612   1.087       .  S
Fe613       O629   2.024       .  S
Fe613       O619   2.099       .  S
Fe613       O626   2.101       .  S
Fe613       O618   2.027       .  S
Fe613       O624   1.945       .  S
Fe614       O617   2.010       .  S
Fe614       O621   2.149       .  S
Fe614       O625   2.034       .  S
Fe614       O630   2.134       .  S
Fe614       O624   1.919       .  S
Fe615       O633   2.140       .  S
Fe615       O620   2.023       .  S
Fe615       O627   2.040       .  S
Fe615       O616   2.150       .  S
Fe615       O624   1.925       .  S
O616        C623   1.293       .  A
O617        C631   1.257       .  A
O618        C623   1.272       .  A
O619        C622   1.271       .  A
O620        C632   1.260       .  A
O621        C634   1.294       .  A
C622        O627   1.256       .  A
C622       C1214   1.474       .  S
C623       C1217   1.484       .  S
O625        C628   1.253       .  A
O626        C628   1.269       .  A
C628       C1221   1.472       .  S
O629        C634   1.272       .  A
O630        C632   1.285       .  A
C631        O633   1.286       .  A
C631       C1206   1.488       .  S
C632       C1202   1.489   1_455  S
C634       C1209   1.486       .  S
Fe635       O651   2.037   1_655  S
Fe635       O641   2.062   1_655  S
Fe635       O648   2.060       .  S
Fe635       O640   2.034       .  S
Fe635       O646   1.942       .  S
Fe636       O639   2.020   1_655  S
Fe636       O643   2.135       .  S
Fe636       O647   2.050       .  S
Fe636       O652   2.137       .  S
Fe636       O646   1.939       .  S
Fe637       O655   2.130       .  S
Fe637       O642   2.034   1_455  S
Fe637       O649   2.050       .  S
Fe637       O638   2.132   1_455  S
Fe637       O646   1.938   1_455  S
O638        C645   1.289       .  A
O639        C653   1.259       .  A
O640        C645   1.275       .  A
O641        C644   1.260       .  A
O642        C654   1.261       .  A
O643        C656   1.289   1_655  A
C644        O649   1.260       .  A
C644       C1189   1.467       .  S
C645       C1193   1.476   1_556  S
O647        C650   1.261       .  A
O648        C650   1.260       .  A
C650       C1197   1.465       .  S
O651        C656   1.274       .  A
O652        C654   1.286       .  A
C653        O655   1.285       .  A
C653       C1205   1.487       .  S
C654       C1181   1.496       .  S
C656       C1186   1.478       .  S
Fe657       O673   2.036       .  S
Fe657       O670   2.056       .  S
Fe657       O668   1.946       .  S
Fe658       O661   2.029       .  S
Fe658       O665   2.133       .  S
Fe658       O669   2.053       .  S
Fe658       O674   2.136       .  S
Fe658       O668   1.938       .  S
Fe659       O664   2.035       .  S
Fe659       O671   2.053       .  S
Fe659       O660   2.137       .  S
O660        C667   1.291       .  A
O661        C675   1.261       .  A
O662        C667   1.275       .  A
O663        C666   1.260       .  A
O665        C678   1.289       .  A
C666        O671   1.260       .  A
C666       C1178   1.470       .  S
C667       C1165   1.481       .  S
O669        C672   1.262       .  A
O670        C672   1.259       .  A
C672       C1169   1.466       .  S
O673        C678   1.274       .  A
O674        C676   1.286       .  A
C675        O677   1.284       .  A
C675       C1201   1.489       .  S
C678       C1174   1.477       .  S
Fe679       O695   2.048       .  S
Fe679       O685   2.079       .  S
Fe679       O692   2.077       .  S
Fe679       O684   2.048       .  S
Fe679       O690   1.956       .  S
Fe680       O683   2.053       .  S
Fe680       O687   2.098       .  S
Fe680       O691   2.088       .  S
Fe680       O696   2.085       .  S
Fe680       O690   1.944       .  S
Fe681       O699   2.073       .  S
Fe681       O686   2.031       .  S
Fe681       O693   2.063       .  S
Fe681       O682   2.104       .  S
Fe681       O690   1.943       .  S
O682        C689   1.283       .  A
O683        C697   1.269       .  A
O684        C689   1.278       .  A
O685        C688   1.262       .  A
O686        C698   1.267       .  A
O687        C700   1.282       .  A
C688        O693   1.260       .  A
C688       C1173   1.473       .  S
C689       C1177   1.475       .  S
O691        C694   1.268       .  A
O692        C694   1.262       .  A
C694       C1157   1.488       .  S
O695        C700   1.277       .  A
O696        C698   1.274       .  A
C697        O699   1.271       .  A
C697       C1150   1.462       .  S
C698       C1161   1.468       .  S
C700       C1153   1.471       .  S
Fe701       O714   2.099       .  S
Fe701       O706   2.039       .  S
Fe701       O712   1.947       .  S
Fe702       O709   2.082       .  S
Fe702       O713   2.063       .  S
Fe702       O718   2.080       .  S
Fe702       O712   1.946       .  S
Fe703       O708   2.036       .  S
Fe703       O704   2.109       .  S
Fe703       O712   1.932       .  S
O704        C711   1.284       .  A
O705        C719   1.266       .  A
O706        C711   1.269       .  A
O707        C710   1.262       .  A
O708        C720   1.261       .  A
C710        O715   1.259       .  A
C710       C1218   1.476       .  S
C711       C1222   1.474       .  S
O713        C716   1.269       .  A
O714        C716   1.272       .  A
C716       C1146   1.476       .  S
O717        C722   1.284       .  A
O718        C720   1.267       .  A
C719        O721   1.272       .  A
C719       C1137   1.468       .  S
C720       C1162   1.457       .  S
C722       C1141   1.475       .  S
Fe723       O739   2.026   1_655  S
Fe723       O729   2.099       .  S
Fe723       O736   2.095   1_655  S
Fe723       O728   2.036       .  S
Fe723       O734   1.936       .  S
Fe724       O727   2.032       .  S
Fe724       O731   2.099       .  S
Fe724       O735   2.069       .  S
Fe724       O740   2.118       .  S
Fe724       O734   1.926   1_455  S
Fe725       O743   2.086       .  S
Fe725       O730   2.018       .  S
Fe725       O737   2.054       .  S
Fe725       O726   2.086       .  S
Fe725       O734   1.934       .  S
O726        C733   1.274       .  A
O727        C741   1.261       .  A
O728        C733   1.270       .  A
O729        C732   1.273       .  A
O730        C742   1.266       .  A
O731        C744   1.282       .  A
C732        O737   1.267       .  A
C732       C1125   1.470       .  S
C733       C1122   1.464       .  S
O735        C738   1.268       .  A
O736        C738   1.271       .  A
C738       C1134   1.479       .  S
O739        C744   1.266       .  A
O740        C742   1.281   1_455  A
C741        O743   1.269   1_455  A
C741       C1138   1.454       .  S
C742       C1149   1.466       .  S
C744       C1130   1.462       .  S
Fe745       O761   2.042       .  S
Fe745       O751   2.056       .  S
Fe745       O758   2.059       .  S
Fe745       O750   2.043       .  S
Fe745       O756   1.942       .  S
Fe746       O749   2.037       .  S
Fe746       O753   2.127       .  S
Fe746       O757   2.059       .  S
Fe746       O762   2.136       .  S
Fe746       O756   1.939       .  S
Fe747       O765   2.117       .  S
Fe747       O752   2.018       .  S
Fe747       O759   2.041       .  S
Fe747       O748   2.131       .  S
Fe747       O756   1.940       .  S
O748        C755   1.289       .  A
O749        C763   1.262       .  A
O750        C755   1.275       .  A
O751        C754   1.260       .  A
O752        C764   1.259       .  A
O753        C766   1.288       .  A
C754        O759   1.257       .  A
C754       C1109   1.458       .  S
C755       C1145   1.479       .  S
O757        C760   1.264       .  A
O758        C760   1.260       .  A
C760       C1142   1.471       .  S
O761        C766   1.275       .  A
O762        C764   1.286       .  A
C763        O765   1.281       .  A
C763       C1117   1.486       .  S
C764       C1113   1.491       .  S
C766       C1106   1.475       .  S
Fe767       O783   2.046       .  S
Fe767       O773   2.089       .  S
Fe767       O780   2.078   1_565  S
Fe767       O772   2.037   1_565  S
Fe767       O778   1.939       .  S
Fe768       O771   2.030   1_545  S
Fe768       O775   2.140   1_545  S
Fe768       O779   2.053       .  S
Fe768       O784   2.156       .  S
Fe768       O778   1.932   1_545  S
Fe769       O787   2.128       .  S
Fe769       O774   2.014   1_565  S
Fe769       O781   2.033       .  S
Fe769       O770   2.145   1_565  S
Fe769       O778   1.928       .  S
O770        C777   1.291       .  A
O771        C785   1.260       .  A
O772        C777   1.272       .  A
O773        C776   1.268       .  A
O774        C786   1.258       .  A
O775        C788   1.290       .  A
C776        O781   1.252       .  A
C776       C1129   1.469       .  S
C777       C1097   1.484   1_556  S
O779        C782   1.265       .  A
O780        C782   1.266       .  A
C782       C1102   1.473       .  S
O783        C788   1.275       .  A
O784        C786   1.290       .  A
C785        O787   1.283       .  A
C785       C1114   1.488       .  S
C786       C1093   1.497       .  S
C788       C1133   1.484       .  S
Fe789       O805   2.047       .  S
Fe789       O802   2.055       .  S
Fe789       O800   1.943       .  S
Fe790       O793   2.022       .  S
Fe790       O797   2.143       .  S
Fe790       O801   2.049       .  S
Fe790       O806   2.140       .  S
Fe790       O800   1.934       .  S
Fe791       O796   2.032       .  S
Fe791       O803   2.051       .  S
Fe791       O792   2.135       .  S
O792        C799   1.290       .  A
O793        C807   1.260       .  A
O794        C799   1.276       .  A
O795        C798   1.261       .  A
O797        C810   1.291       .  A
C798        O803   1.261       .  A
C798       C1081   1.466       .  S
C799       C1085   1.481       .  S
O801        C804   1.261       .  A
O802        C804   1.259       .  A
C804       C1089   1.463       .  S
O805        C810   1.275       .  A
O806        C808   1.287       .  A
C807        O809   1.283       .  A
C807       C1118   1.488   1_545  S
C810       C1077   1.486       .  S
Fe811       O827   2.047   1_565  S
Fe811       O817   2.073       .  S
Fe811       O824   2.079   1_565  S
Fe811       O816   2.046       .  S
Fe811       O822   1.949       .  S
Fe812       O815   2.027       .  S
Fe812       O819   2.102       .  S
Fe812       O823   2.058       .  S
Fe812       O828   2.070       .  S
Fe812       O822   1.938   1_545  S
Fe813       O831   2.063       .  S
Fe813       O818   2.044       .  S
Fe813       O825   2.064       .  S
Fe813       O814   2.094       .  S
Fe813       O822   1.942       .  S
O814        C821   1.283       .  A
O815        C829   1.265       .  A
O816        C821   1.281       .  A
O817        C820   1.259       .  A
O818        C830   1.267       .  A
O819        C832   1.284       .  A
C820        O825   1.259       .  A
C820       C1066   1.474       .  S
C821       C1062   1.466       .  S
O823        C826   1.258       .  A
O824        C826   1.260       .  A
C826       C1194   1.472       .  S
O827        C832   1.280       .  A
O828        C830   1.270   1_545  A
C829        O831   1.270   1_545  A
C829       C1070   1.451       .  S
C830       C1074   1.464       .  S
C832       C1198   1.472       .  S
Fe833       O846   2.052       .  S
Fe833       O838   2.030       .  S
Fe833       O844   1.958       .  S
Fe834       O841   2.079   1_556  S
Fe834       O845   2.058       .  S
Fe834       O850   2.089       .  S
Fe834       O844   1.962       .  S
Fe835       O840   2.028       .  S
Fe835       O836   2.092       .  S
Fe835       O844   1.962       .  S
O836        C843   1.277       .  A
O837        C851   1.259       .  A
O838        C843   1.272       .  A
O839        C842   1.273       .  A
O840        C852   1.266       .  A
C842        O847   1.268       .  A
C842       C1105   1.474       .  S
C843       C1110   1.469       .  S
O845        C848   1.259       .  A
O846        C848   1.258       .  A
C848       C1057   1.470       .  S
O849        C854   1.268       .  A
O850        C852   1.279       .  A
C851        O853   1.269       .  A
C851       C1073   1.455       .  S
C852       C1050   1.464       .  S
C854       C1054   1.463       .  S
Fe855       O871   2.051       .  S
Fe855       O861   2.081       .  S
Fe855       O868   2.080       .  S
Fe855       O860   2.055       .  S
Fe855       O866   1.952       .  S
Fe856       O859   2.054       .  S
Fe856       O863   2.100       .  S
Fe856       O867   2.073       .  S
Fe856       O872   2.063       .  S
Fe856       O866   1.945       .  S
Fe857       O875   2.061       .  S
Fe857       O862   2.028       .  S
Fe857       O869   2.058       .  S
Fe857       O858   2.092       .  S
Fe857       O866   1.943       .  S
O858        C865   1.282       .  A
O859        C873   1.268       .  A
O860        C865   1.281       .  A
O861        C864   1.261       .  A
O862        C874   1.265       .  A
O863        C876   1.284       .  A
C864        O869   1.258       .  A
C864       C1166   1.473       .  S
C865       C1170   1.470       .  S
O867        C870   1.261       .  A
O868        C870   1.261       .  A
C870       C1078   1.482       .  S
O871        C876   1.282       .  A
O872        C874   1.270       .  A
C873        O875   1.269       .  A
C873       C1049   1.460       .  S
C874       C1069   1.450       .  S
C876       C1082   1.472       .  S
Fe877       O893   2.046       .  S
Fe877       O883   2.076       .  S
Fe877       O890   2.070       .  S
Fe877       O882   2.044       .  S
Fe877       O888   1.955       .  S
Fe878       O881   2.054       .  S
Fe878       O885   2.105       .  S
Fe878       O889   2.074       .  S
Fe878       O894   2.069       .  S
Fe878       O888   1.949       .  S
Fe879       O897   2.073       .  S
Fe879       O884   2.032       .  S
Fe879       O891   2.069       .  S
Fe879       O880   2.097       .  S
Fe879       O888   1.948       .  S
O880        C887   1.282       .  A
O881        C895   1.267       .  A
O882        C887   1.278       .  A
O883        C886   1.261       .  A
O884        C896   1.266       .  A
O885        C898   1.286       .  A
C886        O891   1.261       .  A
C886       C1086   1.478       .  S
C887       C1090   1.470       .  S
O889        C892   1.261       .  A
O890        C892   1.259       .  A
C892       C1038   1.482       .  S
O893        C898   1.281       .  A
O894        C896   1.272       .  A
C895        O897   1.271       .  A
C895       C1045   1.468       .  S
C896       C1041   1.454       .  S
C898       C1033   1.474       .  S
Fe899       O915   2.057       .  S
Fe899       O905   2.073       .  S
Fe899       O912   2.081       .  S
Fe899       O904   2.055       .  S
Fe899       O910   1.950       .  S
Fe900       O903   2.032       .  S
Fe900       O907   2.107       .  S
Fe900       O911   2.069       .  S
Fe900       O916   2.075       .  S
Fe900       O910   1.939       .  S
Fe901       O919   2.066       .  S
Fe901       O906   2.044       .  S
Fe901       O913   2.064       .  S
Fe901       O902   2.100       .  S
Fe901       O910   1.945       .  S
O902        C909   1.284       .  A
O903        C917   1.265       .  A
O904        C909   1.283       .  A
O905        C908   1.259       .  A
O906        C918   1.266       .  A
O907        C920   1.286       .  A
C908        O913   1.259       .  A
C908       C1185   1.474       .  S
C909       C1190   1.473       .  S
O911        C914   1.260       .  A
O912        C914   1.260       .  A
C914       C1098   1.480       .  S
O915        C920   1.282       .  A
O916        C918   1.273       .  A
C917        O919   1.270       .  A
C917       C1042   1.455       .  S
C918       C1029   1.463       .  S
C920       C1101   1.477       .  S
Fe921       O937   2.036       .  S
Fe921       O927   2.063       .  S
Fe921       O932   1.962       .  S
Fe922       O925   2.029       .  S
Fe922       O929   2.098       .  S
Fe922       O932   1.963       .  S
Fe923       O941   2.103       .  S
Fe923       O935   2.060       .  S
Fe923       O924   2.095   1_556  S
Fe923       O932   1.964       .  S
O925        C939   1.266       .  A
O926        C931   1.276       .  A
O927        C930   1.260       .  A
O928        C940   1.258       .  A
O929        C942   1.279       .  A
C930        O935   1.259       .  A
C930       C1210   1.476       .  S
C931       C1213   1.474       .  S
O933        C936   1.259       .  A
O934        C936   1.264       .  A
C936       C1025   1.467       .  S
O937        C942   1.272       .  A
O938        C940   1.269       .  A
C939        O941   1.283       .  A
C939       C1046   1.471       .  S
C940       C1030   1.465       .  S
C942       C1021   1.474       .  S
Fe943       O959   2.027       .  S
Fe943       O949   2.073       .  S
Fe943       O956   2.063       .  S
Fe943       O948   2.022       .  S
Fe943       O954   1.943       .  S
Fe944       O947   2.018       .  S
Fe944       O951   2.135       .  S
Fe944       O955   2.048       .  S
Fe944       O960   2.135       .  S
Fe944       O954   1.933       .  S
Fe945       O963   2.125       .  S
Fe945       O950   2.020       .  S
Fe945       O957   2.039       .  S
Fe945       O946   2.141       .  S
Fe945       O954   1.934       .  S
O946        C953   1.290       .  A
O947        C961   1.257       .  A
O948        C953   1.272       .  A
O949        C952   1.264       .  A
O950        C962   1.261       .  A
O951        C964   1.291       .  A
C952        O957   1.254       .  A
C952       C1053   1.465       .  S
C953       C1026   1.478       .  S
O955        C958   1.259       .  A
O956        C958   1.262       .  A
C958       C1022   1.465       .  S
O959        C964   1.274       .  A
O960        C962   1.287       .  A
C961        O963   1.281       .  A
C961       C1013   1.486       .  S
C962       C1018   1.488       .  S
C964       C1058   1.481       .  S
Fe965       O971   2.068       .  S
Fe965       O970   2.055       .  S
Fe965       O976   1.941       .  S
Fe966       O969   2.022       .  S
Fe966       O973   2.138       .  S
Fe966       O977   2.051       .  S
Fe967       O985   2.125       .  S
Fe967       O972   2.022       .  S
Fe967       O979   2.046       .  S
Fe967       O968   2.131       .  S
Fe967       O976   1.937       .  S
O968        C975   1.289       .  A
O970        C975   1.277       .  A
O971        C974   1.261       .  A
O972        C984   1.260       .  A
O973        C986   1.291       .  A
C974        O979   1.260       .  A
C974       C1154   1.468       .  S
C975       C1037   1.482       .  S
O977        C980   1.260       .  A
O978        C980   1.261       .  A
C980       C1034   1.467       .  S
O981        C986   1.277       .  A
O982        C984   1.285       .  A
C983        O985   1.282       .  A
C984       C1017   1.488       .  S
C986       C1158   1.487       .  S
Fe987      O1003   2.034       .  S
Fe987       O993   2.056       .  S
Fe987      O1000   2.051       .  S
Fe987       O992   2.038       .  S
Fe987       O998   1.941       .  S
Fe988       O991   2.031       .  S
Fe988       O995   2.128       .  S
Fe988       O999   2.048       .  S
Fe988      O1004   2.129       .  S
Fe988       O998   1.936       .  S
Fe989      O1007   2.121       .  S
Fe989       O994   2.023       .  S
Fe989      O1001   2.041       .  S
Fe989       O990   2.130       .  S
Fe989       O998   1.934       .  S
O990        C997   1.288       .  A
O991       C1005   1.261       .  A
O992        C997   1.273       .  A
O993        C996   1.260       .  A
O994       C1006   1.260       .  A
O995       C1008   1.288       .  A
C996       O1001   1.259       .  A
C996       C1121   1.457       .  S
C997       C1065   1.477       .  S
O999       C1002   1.261       .  A
O1000      C1002   1.259       .  A
C1002      C1061   1.459       .  S
O1003      C1008   1.274       .  A
O1004      C1006   1.284       .  A
C1005      O1007   1.282       .  A
C1005      C1010   1.486       .  S
C1006      C1014   1.486       .  S
C1008      C1126   1.474   1_556  S
C1009      C1010   1.365       .  D
C1010      H1012   1.086       .  S
C1013      C1014   1.367       .  D
C1013      H1015   1.086       .  S
C1014      H1016   1.086       .  S
C1017      C1018   1.368       .  D
C1017      H1019   1.086       .  S
C1018      H1020   1.086       .  S
C1021      C1022   1.345       .  D
C1021      H1023   1.087       .  S
C1022      H1024   1.087       .  S
C1025      C1026   1.349       .  D
C1025      H1027   1.087       .  S
C1026      H1028   1.086       .  S
C1029      C1030   1.354       .  D
C1029      H1031   1.087       .  S
C1030      H1032   1.087       .  S
C1033      C1034   1.344       .  D
C1033      H1035   1.087       .  S
C1034      H1036   1.087       .  S
C1037      C1038   1.351       .  D
C1037      H1039   1.087       .  S
C1038      H1040   1.087       .  S
C1041      C1042   1.349       .  D
C1041      H1043   1.087       .  S
C1042      H1044   1.087       .  S
C1045      C1046   1.357       .  D
C1045      H1047   1.087       .  S
C1046      H1048   1.086       .  S
C1049      C1050   1.353   1_545  D
C1049      H1051   1.087       .  S
C1050      H1052   1.087       .  S
C1053      C1054   1.339       .  D
C1053      H1055   1.087       .  S
C1054      H1056   1.087       .  S
C1057      C1058   1.350       .  D
C1057      H1059   1.087       .  S
C1058      H1060   1.087       .  S
C1061      H1063   1.087       .  S
C1062      H1064   1.087       .  S
C1065      C1066   1.349       .  D
C1065      H1067   1.086       .  S
C1066      H1068   1.087       .  S
C1069      C1070   1.348       .  D
C1069      H1071   1.087       .  S
C1070      H1072   1.087       .  S
C1073      C1074   1.349       .  D
C1073      H1075   1.087       .  S
C1074      H1076   1.087       .  S
C1077      C1078   1.353       .  D
C1077      H1079   1.086       .  S
C1078      H1080   1.087       .  S
C1081      C1082   1.342       .  D
C1081      H1083   1.087       .  S
C1082      H1084   1.087       .  S
C1085      C1086   1.351       .  D
C1085      H1087   1.086       .  S
C1086      H1088   1.087       .  S
C1089      C1090   1.341       .  D
C1089      H1091   1.087       .  S
C1090      H1092   1.087       .  S
C1093      C1094   1.373       .  D
C1093      H1095   1.086       .  S
C1101      C1102   1.344       .  D
C1101      H1103   1.087       .  S
C1102      H1104   1.087       .  S
C1105      C1106   1.347       .  D
C1105      H1107   1.087       .  S
C1106      H1108   1.086       .  S
C1109      C1110   1.343       .  D
C1109      H1111   1.087       .  S
C1110      H1112   1.087       .  S
C1113      C1114   1.368       .  D
C1113      H1115   1.086       .  S
C1114      H1116   1.086       .  S
C1117      C1118   1.365       .  D
C1117      H1119   1.086   1_565  S
C1118      H1120   1.086       .  S
C1121      C1122   1.339       .  D
C1121      H1123   1.087       .  S
C1122      H1124   1.088       .  S
C1125      H1127   1.087       .  S
C1126      H1128   1.086       .  S
C1129      H1131   1.087       .  S
C1130      H1132   1.087       .  S
C1133      C1134   1.351       .  D
C1133      H1135   1.087       .  S
C1134      H1136   1.086       .  S
C1137      C1138   1.350       .  D
C1137      H1139   1.087       .  S
C1138      H1140   1.087       .  S
C1141      C1142   1.340       .  D
C1141      H1143   1.087       .  S
C1142      H1144   1.087       .  S
C1145      C1146   1.349       .  D
C1145      H1147   1.086       .  S
C1146      H1148   1.087       .  S
C1149      C1150   1.352       .  D
C1149      H1151   1.087       .  S
C1150      H1152   1.087       .  S
C1153      C1154   1.342       .  D
C1153      H1155   1.087       .  S
C1154      H1156   1.087       .  S
C1157      C1158   1.355       .  D
C1157      H1159   1.086       .  S
C1158      H1160   1.086       .  S
C1161      C1162   1.352   1_655  D
C1161      H1163   1.087       .  S
C1162      H1164   1.088       .  S
C1165      C1166   1.350       .  D
C1165      H1167   1.087       .  S
C1166      H1168   1.087       .  S
C1169      C1170   1.339       .  D
C1169      H1171   1.087       .  S
C1170      H1172   1.087       .  S
C1173      C1174   1.349       .  D
C1173      H1175   1.087       .  S
C1174      H1176   1.086       .  S
C1177      C1178   1.343       .  D
C1177      H1179   1.087       .  S
C1178      H1180   1.087       .  S
C1181      C1182   1.370       .  D
C1181      H1183   1.086       .  S
C1182      H1184   1.086   1_556  S
C1185      C1186   1.350       .  D
C1185      H1187   1.087       .  S
C1186      H1188   1.086       .  S
C1189      H1191   1.087       .  S
C1190      H1192   1.087       .  S
C1193      H1195   1.087       .  S
C1194      H1196   1.087       .  S
C1197      C1198   1.341       .  D
C1197      H1199   1.087       .  S
C1198      H1200   1.087       .  S
C1201      C1202   1.367       .  D
C1201      H1203   1.086   1_655  S
C1202      H1204   1.086       .  S
C1205      C1206   1.369       .  D
C1205      H1207   1.086       .  S
C1206      H1208   1.086       .  S
C1209      C1210   1.354       .  D
C1209      H1211   1.086       .  S
C1210      H1212   1.086       .  S
C1213      C1214   1.340       .  D
C1213      H1215   1.087       .  S
C1214      H1216   1.087       .  S
C1217      C1218   1.353       .  D
C1217      H1219   1.086       .  S
C1218      H1220   1.087       .  S
C1221      C1222   1.338       .  D
C1221      H1223   1.087       .  S
C1222      H1224   1.087       .  S
