geometry optimzed in LAMMPS
_audit_creation_date              2020-12-01 
_audit_creation_method            'lammps2cif' 
_symmetry_space_group_name_H-M    'P1' 
_symmetry_Int_Tables_number       1 
_symmetry_cell_setting            triclinic 
loop_ 
_symmetry_equiv_pos_as_xyz 
  x,y,z 
_cell_length_a                    53.13384356 
_cell_length_b                    53.30391925232328 
_cell_length_c                    39.775232778354315 
_cell_angle_alpha                 90.25560329467058 
_cell_angle_beta                  89.70464382452471 
_cell_angle_gamma                 90.00447145093077 
loop_ 
_atom_site_label 
_atom_site_type_symbol 
_atom_site_fract_x 
_atom_site_fract_y 
_atom_site_fract_z 
_atom_site_charge 
Zr1        Zr  0.99960988  0.03279367  0.19477076     2.17500
O2          O  0.99584053  0.07129086  0.16209112    -0.51800
O3          O  0.00104987  0.01737127  0.13650986    -0.75000
O4          O  0.03953977  0.05612311  0.18992799    -0.81700
O5          O  0.92825983  0.03135790  0.21437255    -0.83500
O6          O  0.06960337  0.03638214  0.22036714    -0.79100
O7          O  0.95923921  0.05510678  0.19111398    -0.90700
O8          O  0.00192487  0.97491237  0.13556918    -0.76700
O9          O  0.02821786  0.99836116  0.19553721    -0.86200
O10         O  0.97460567  0.99565435  0.19127698    -0.85900
O11         O  0.02131390  0.03640018  0.24782385    -0.72600
O12         O  0.97248214  0.03316363  0.24328415    -0.84800
Zr13       Zr  0.99931221  0.96389578  0.29347694     2.26400
Zr14       Zr  0.04969884  0.00127532  0.24828551     2.06300
Zr15       Zr  0.94833414  0.99545447  0.24023878     2.10000
Zr16       Zr  0.00317778  0.96131131  0.19291684     1.78800
O17         O  0.91315271  0.00787875  0.27609506    -0.93600
O18         O  0.04137128  0.94520234  0.16639875    -0.41400
O19         O  0.97674671  0.96073008  0.24145526    -0.78000
O20         O  0.02601702  0.96306448  0.24430817    -0.96700
O21         O  0.02335188  0.00142874  0.29730596    -0.90000
O22         O  0.96983660  0.99768189  0.29291023    -0.92900
C23         C  0.00133242  0.99615865  0.12090945     1.00900
C24         C  0.93599997  0.05098924  0.19883565     1.13800
C25         C  0.06214340  0.05420246  0.20123714     1.04600
O26         O  0.08454088  0.98660994  0.21340423    -0.95000
O27         O  0.07104618  0.96819650  0.27867646    -0.90800
O28         O  0.04072021  0.94512741  0.30433127    -0.83900
C29         C  0.06387938  0.94965751  0.29685743     1.11200
O30         O  0.99199039  0.08077168  0.29211095    -0.97000
Zr31       Zr  0.99395413  0.03515831  0.29574514     1.88900
O32         O  0.99474851  0.97829421  0.35172749    -0.73600
O33         O  0.07635089  0.02000159  0.29121593    -0.52900
O34         O  0.02771578  0.05616657  0.32613362    -0.97600
O35         O  0.95338159  0.05160959  0.31462281    -0.54800
O36         O  0.99081204  0.02053466  0.35271815    -0.74200
C37         C  0.99175942  0.99926321  0.36734970     0.98200
O38         O  0.99738803  0.92427888  0.32399179    -0.63000
O39         O  0.92057313  0.97826824  0.19738949    -0.57800
O40         O  0.96157140  0.93785880  0.29288634    -0.94500
O41         O  0.93046130  0.95809025  0.26507069    -0.92900
O42         O  0.96740683  0.93838743  0.17018087    -0.93200
O43         O  0.00790634  0.91607323  0.19845770    -0.92000
C44         C  0.93888259  0.93949950  0.28205436     1.17000
H45         H  0.96436360  0.99543334  0.17128626     0.33000
H46         H  0.03674853  0.94847737  0.24349596     0.43800
H47         H  0.95795687  0.99632558  0.31128373     0.37400
H48         H  0.03011161  0.05213934  0.25001358     0.33800
H49         H  0.03567244  0.93737836  0.14512999     0.25600
H50         H  0.09360374  0.01899925  0.28178038     0.31600
H51         H  0.03452044  0.04335092  0.34157109     0.37500
H52         H  0.97274557  0.93316998  0.14732294     0.31900
H53         H  0.92547076  0.96040969  0.19539088     0.30800
H54         H  0.89795899  0.00343194  0.26304797     0.32500
H55         H  0.94588006  0.03829559  0.32875660     0.31500
H56         H  0.99712082  0.91161695  0.21791597     0.35500
H57         H  0.00637344  0.91183359  0.30978393     0.28200
H58         H  0.00739642  0.06919938  0.14266545     0.32400
H59         H  0.98773780  0.08668895  0.31508914     0.35300
H60         H  0.90373655  0.97789235  0.20815174     0.27900
H61         H  0.00804393  0.92649608  0.34414320     0.40700
H62         H  0.08109902  0.96855716  0.20969709     0.30800
H63         H  0.05076665  0.96031351  0.15921194     0.38400
H64         H  0.94282126  0.05188491  0.29419026     0.30300
H65         H  0.07217336  0.03809571  0.29087760     0.30300
H66         H  0.00335439  0.08482749  0.17590836     0.30600
Zr67       Zr  0.99508701  0.03422456  0.69642876     2.17500
O68         O  0.99011786  0.07358100  0.66598616    -0.51800
O69         O  0.99183178  0.02069152  0.63767388    -0.75000
O70         O  0.03488206  0.05692778  0.68799669    -0.81700
O71         O  0.92534953  0.03481188  0.72474902    -0.83500
O72         O  0.06720617  0.03253791  0.70598528    -0.79100
O73         O  0.95562397  0.05774281  0.69848194    -0.90700
O74         O  0.98964997  0.97827946  0.63485909    -0.76700
O75         O  0.02096935  0.99801224  0.68961778    -0.86200
O76         O  0.96731371  0.99902160  0.69654869    -0.85900
O77         O  0.02260946  0.03498743  0.74451547    -0.72600
O78         O  0.97308034  0.03517687  0.74938679    -0.84800
Zr79       Zr  0.00051119  0.96350179  0.79135617     2.26400
Zr80       Zr  0.04828856  0.99831256  0.73741667     2.06300
Zr81       Zr  0.94632121  0.99914026  0.75000540     2.10000
Zr82       Zr  0.99317052  0.96284871  0.69120665     1.78800
O83         O  0.92058846  0.01670483  0.79517449    -0.93600
O84         O  0.02589823  0.94116284  0.65927266    -0.41400
O85         O  0.97235455  0.96283906  0.74434728    -0.78000
O86         O  0.02144282  0.96208692  0.73748968    -0.96700
O87         O  0.02760853  0.99905219  0.79121463    -0.90000
O88         O  0.97357278  0.99899845  0.79762241    -0.92900
C89         C  0.98972056  0.99995106  0.62130247     1.00900
C90         C  0.93280300  0.05413785  0.70829309     1.13800
C91         C  0.05844228  0.05254650  0.69257464     1.04600
O92         O  0.07808358  0.98084565  0.69688855    -0.95000
O93         O  0.06988141  0.96286184  0.76185096    -0.90800
O94         O  0.04162273  0.94304366  0.79561699    -0.83900
C95         C  0.06350181  0.94525154  0.78204534     1.11200
O96         O  0.00444373  0.07992628  0.79046144    -0.97000
Zr97       Zr  0.00059754  0.03456791  0.79679396     1.88900
O98         O  0.00237708  0.97643124  0.85037936    -0.73600
O99         O  0.08127986  0.01520263  0.77329873    -0.52900
O100        O  0.03915304  0.04929373  0.82327442    -0.97600
O101        O  0.96605297  0.05733976  0.82356914    -0.54800
O102        O  0.99987945  0.01884396  0.85338272    -0.74200
C103        C  0.00099193  0.99716126  0.86693040     0.98200
O104        O  0.99934388  0.92120565  0.81473777    -0.63000
O105        O  0.91059988  0.98297928  0.71827398    -0.57800
O106        O  0.96133000  0.94072916  0.80037175    -0.94500
O107        O  0.92897601  0.96203828  0.77670283    -0.92900
O108        O  0.95314081  0.94549511  0.67272568    -0.93200
O109        O  0.99265234  0.91730973  0.69573228    -0.92000
C110        C  0.93792942  0.94340469  0.79315631     1.17000
H111        H  0.95531730  0.00009892  0.67845369     0.33000
H112        H  0.03082690  0.94673753  0.73450681     0.43800
H113        H  0.96374441  0.99802325  0.81807151     0.37400
H114        H  0.03270580  0.04995545  0.74627161     0.33800
H115        H  0.01780572  0.93624965  0.63785710     0.25600
H116        H  0.09713528  0.01143969  0.76109099     0.31600
H117        H  0.03376823  0.05616064  0.84533983     0.37500
H118        H  0.95643478  0.93921815  0.64965740     0.31900
H119        H  0.89584131  0.99228134  0.72712634     0.30800
H120        H  0.90551742  0.00581872  0.79621334     0.32500
H121        H  0.97307337  0.06372180  0.84497270     0.31500
H122        H  0.99033724  0.91408470  0.72005306     0.35500
H123        H  0.00751894  0.91012344  0.79786612     0.28200
H124        H  0.00120414  0.07223228  0.64596753     0.32400
H125        H  0.00704891  0.08675375  0.81336975     0.35300
H126        H  0.91288928  0.98930722  0.69510138     0.27900
H127        H  0.01077670  0.92134094  0.83432724     0.40700
H128        H  0.07186771  0.98631014  0.67467086     0.30800
H129        H  0.03799381  0.95446578  0.65291002     0.38400
H130        H  0.95394721  0.04422598  0.83052531     0.30300
H131        H  0.07947491  0.03365206  0.77181742     0.30300
H132        H  0.99786257  0.08673428  0.68024129     0.30600
Zr133      Zr  0.28744009  0.24996353  0.07310274     2.17500
O134        O  0.32680829  0.25303519  0.04152931    -0.51800
O135        O  0.27306137  0.25260202  0.01464812    -0.75000
O136        O  0.30718167  0.20899431  0.06334714    -0.81700
O137        O  0.29451142  0.31784651  0.10555957    -0.83500
O138        O  0.28197198  0.17805085  0.08359946    -0.79100
O139        O  0.31389974  0.28783811  0.07409981    -0.90700
O140        O  0.23064945  0.25649172  0.01371189    -0.76700
O141        O  0.24952467  0.22638969  0.06780773    -0.86200
O142        O  0.25384703  0.27966002  0.07482960    -0.85900
O143        O  0.28717675  0.22228231  0.12116411    -0.72600
O144        O  0.29049610  0.27102328  0.12648186    -0.84800
Zr145      Zr  0.21722665  0.24874306  0.17080886     2.26400
Zr146      Zr  0.24874090  0.19902217  0.11542936     2.06300
Zr147      Zr  0.25633528  0.29999641  0.12849284     2.10000
Zr148      Zr  0.21598248  0.25606115  0.07081049     1.78800
O149        O  0.27383979  0.32594646  0.17321533    -0.93600
O150        O  0.19162583  0.22390044  0.04185947    -0.41400
O151        O  0.21795090  0.27694460  0.12386170    -0.78000
O152        O  0.21395440  0.22783795  0.11705793    -0.96700
O153        O  0.25109717  0.21940919  0.16929638    -0.90000
O154        O  0.25486911  0.27280944  0.17605523    -0.92900
C155        C  0.25203340  0.25480888  0.99904294     1.00900
C156        C  0.31274152  0.31004767  0.08697412     1.13800
C157        C  0.30214658  0.18577154  0.06902613     1.04600
O158        O  0.22767620  0.17326176  0.07338145    -0.95000
O159        O  0.21363530  0.17916075  0.14375966    -0.90800
O160        O  0.19327401  0.20933929  0.17373323    -0.83900
C161        C  0.19537861  0.18675613  0.16243576     1.11200
O162        O  0.33398989  0.23833256  0.16718921    -0.97000
Zr163      Zr  0.28862387  0.24358607  0.17381935     1.88900
O164        O  0.23083098  0.24565715  0.22931033    -0.73600
O165        O  0.26325474  0.16309726  0.14767485    -0.52900
O166        O  0.30167206  0.20352222  0.19735670    -0.97600
O167        O  0.31311769  0.27641825  0.20128153    -0.54800
O168        O  0.27333789  0.24356202  0.23083798    -0.74200
C169        C  0.25178778  0.24445418  0.24523012     0.98200
O170        O  0.17689863  0.25295221  0.20000082    -0.63000
O171        O  0.24557543  0.33573761  0.09342842    -0.57800
O172        O  0.19684588  0.28954408  0.17904775    -0.94500
O173        O  0.22088533  0.32012295  0.15581372    -0.92900
O174        O  0.20148649  0.29587336  0.04821661    -0.93200
O175        O  0.17073913  0.26144285  0.07792710    -0.92000
C176        C  0.20142452  0.31269624  0.17215764     1.17000
H177        H  0.25534951  0.29167020  0.05680048     0.33000
H178        H  0.19808627  0.21927401  0.11439941     0.43800
H179        H  0.25486335  0.28255239  0.19659586     0.37400
H180        H  0.30172872  0.21130128  0.12233932     0.33800
H181        H  0.18380228  0.23269022  0.02267880     0.25600
H182        H  0.26056510  0.14844554  0.13272352     0.31600
H183        H  0.30762175  0.20751926  0.22031704     0.37500
H184        H  0.19197973  0.29129553  0.02773501     0.31900
H185        H  0.22757225  0.33335759  0.08798152     0.30800
H186        H  0.26596914  0.34262247  0.17028894     0.32500
H187        H  0.30056914  0.28700077  0.21313350     0.31500
H188        H  0.16819443  0.26275464  0.10255258     0.35500
H189        H  0.16401611  0.24601126  0.18463994     0.28200
H190        H  0.32450122  0.24252411  0.02118671     0.32400
H191        H  0.34044428  0.23449779  0.18990189     0.35300
H192        H  0.24586673  0.35036842  0.10884502     0.27900
H193        H  0.17756823  0.24115904  0.21913461     0.40700
H194        H  0.20946903  0.17607331  0.07726221     0.30800
H195        H  0.20436763  0.21275866  0.03136596     0.38400
H196        H  0.31930915  0.28709962  0.18268513     0.30300
H197        H  0.28176988  0.16500318  0.14880606     0.30300
H198        H  0.33959946  0.24415459  0.05502734     0.30600
Zr199      Zr  0.28354471  0.24635583  0.57443163     2.17500
O200        O  0.32670972  0.24832467  0.55334084    -0.51800
O201        O  0.27080298  0.24526898  0.51524641    -0.75000
O202        O  0.30270972  0.20474184  0.56579509    -0.81700
O203        O  0.28667658  0.31630178  0.59716674    -0.83500
O204        O  0.27787139  0.17558007  0.59064994    -0.79100
O205        O  0.30702066  0.28568676  0.56796595    -0.90700
O206        O  0.22820201  0.24713971  0.51263220    -0.76700
O207        O  0.24661216  0.22110929  0.57125741    -0.86200
O208        O  0.24880189  0.27468643  0.57119586    -0.85900
O209        O  0.28344284  0.22237437  0.62564388    -0.72600
O210        O  0.28421851  0.27146318  0.62480824    -0.84800
Zr211      Zr  0.21111708  0.24897652  0.66937601     2.26400
Zr212      Zr  0.24588626  0.19749347  0.62237002     2.06300
Zr213      Zr  0.24872894  0.29893651  0.62202887     2.10000
Zr214      Zr  0.21198703  0.24946632  0.56878304     1.78800
O215        O  0.26371117  0.32912899  0.66350066    -0.93600
O216        O  0.18935671  0.21490453  0.54242327    -0.41400
O217        O  0.21159797  0.27380978  0.61912847    -0.78000
O218        O  0.21010824  0.22454301  0.61827362    -0.96700
O219        O  0.24631203  0.22156434  0.67323380    -0.90000
O220        O  0.24745160  0.27521037  0.67298318    -0.92900
C221        C  0.24995239  0.24596505  0.49894475     1.00900
C222        C  0.30484389  0.30850233  0.57844740     1.13800
C223        C  0.29727002  0.18189894  0.57340068     1.04600
O224        O  0.22647472  0.16522897  0.58760741    -0.95000
O225        O  0.21098806  0.17800698  0.65169159    -0.90800
O226        O  0.18788782  0.20951937  0.67506695    -0.83900
C227        C  0.19150033  0.18632831  0.66730116     1.11200
O228        O  0.32854360  0.24580187  0.67338780    -0.97000
Zr229      Zr  0.28268724  0.24765891  0.67550119     1.88900
O230        O  0.22355836  0.25105065  0.72848930    -0.73600
O231        O  0.26521871  0.16790554  0.66092019    -0.52900
O232        O  0.29892619  0.21054017  0.70361806    -0.97600
O233        O  0.30322610  0.28433570  0.69999420    -0.54800
O234        O  0.26607318  0.24976342  0.73179237    -0.74200
C235        C  0.24417058  0.25098497  0.74521587     0.98200
O236        O  0.17114076  0.24627997  0.69958328    -0.63000
O237        O  0.23494032  0.33179608  0.58382071    -0.57800
O238        O  0.18774755  0.28856319  0.66915287    -0.94500
O239        O  0.21086868  0.31889433  0.64376248    -0.92900
O240        O  0.19726754  0.28690435  0.54000892    -0.93200
O241        O  0.16645743  0.25362634  0.57368004    -0.92000
C242        C  0.19107447  0.31129850  0.65939346     1.17000
H243        H  0.25029553  0.28530437  0.55170044     0.33000
H244        H  0.19473996  0.21510852  0.61580417     0.43800
H245        H  0.24649830  0.28631953  0.69218859     0.37400
H246        H  0.29820010  0.21189856  0.62725179     0.33800
H247        H  0.18290692  0.22189487  0.52110858     0.25600
H248        H  0.26277141  0.15128366  0.65021368     0.31600
H249        H  0.28399141  0.20248241  0.71392082     0.37500
H250        H  0.19220720  0.29857770  0.55825774     0.31900
H251        H  0.24192437  0.34750116  0.59332582     0.30800
H252        H  0.26621604  0.34486005  0.65077519     0.32500
H253        H  0.28992920  0.29316270  0.71294001     0.31500
H254        H  0.16352711  0.25915413  0.59717826     0.35500
H255        H  0.17232001  0.25859130  0.71819915     0.28200
H256        H  0.32685994  0.23856749  0.53210014     0.32400
H257        H  0.33407561  0.24515860  0.69711310     0.35300
H258        H  0.24450704  0.32908868  0.56270187     0.27900
H259        H  0.15818477  0.25304364  0.68427425     0.40700
H260        H  0.20942004  0.17171772  0.58277279     0.30800
H261        H  0.20265085  0.20296752  0.53532194     0.38400
H262        H  0.30677606  0.29547266  0.68068490     0.30300
H263        H  0.28352906  0.17107716  0.65899347     0.30300
H264        H  0.33694881  0.23844261  0.56925820     0.30600
Zr265      Zr  0.21364715  0.75615855  0.32828460     2.17500
O266        O  0.17357264  0.75700728  0.29855176    -0.51800
O267        O  0.22504830  0.75673028  0.26885344    -0.75000
O268        O  0.19355898  0.79773498  0.32731069    -0.81700
O269        O  0.21070622  0.68554581  0.34581244    -0.83500
O270        O  0.21681838  0.82596599  0.35695895    -0.79100
O271        O  0.18731281  0.71827733  0.32712779    -0.90700
O272        O  0.26739168  0.76100585  0.26398291    -0.76700
O273        O  0.24992757  0.78244881  0.32650114    -0.86200
O274        O  0.24881458  0.72882108  0.31972941    -0.85900
O275        O  0.21467338  0.77743258  0.38188117    -0.72600
O276        O  0.21432272  0.72839266  0.37547486    -0.84800
Zr277      Zr  0.28736671  0.74869143  0.42008852     2.26400
Zr278      Zr  0.25189258  0.80292880  0.38022545     2.06300
Zr279      Zr  0.24997540  0.70175514  0.36758272     2.10000
Zr280      Zr  0.28499327  0.75512374  0.31910577     1.78800
O281        O  0.23574231  0.66672207  0.40186056    -0.93600
O282        O  0.30450815  0.79299954  0.29681268    -0.41400
O283        O  0.28667485  0.72756042  0.36649194    -0.78000
O284        O  0.28769053  0.77617409  0.37190333    -0.96700
O285        O  0.25229578  0.77578880  0.42807705    -0.90000
O286        O  0.25128061  0.72226234  0.42120905    -0.92900
C287        C  0.24526490  0.75977876  0.25161017     1.00900
C288        C  0.19037721  0.69484391  0.33377496     1.13800
C289        C  0.19765629  0.81982745  0.33927205     1.04600
O290        O  0.27150568  0.83466703  0.34477273    -0.95000
O291        O  0.28729541  0.82045604  0.41047644    -0.90800
O292        O  0.31066901  0.78757208  0.42886095    -0.83900
C293        C  0.30695331  0.81109051  0.42416172     1.11200
O294        O  0.17036225  0.75172813  0.42489215    -0.97000
Zr295      Zr  0.21609483  0.74949648  0.42826281     1.88900
O296        O  0.27503569  0.74596377  0.47975929    -0.73600
O297        O  0.23553966  0.83229676  0.42202899    -0.52900
O298        O  0.20001213  0.78537000  0.45995193    -0.97600
O299        O  0.19576897  0.71176364  0.44964067    -0.54800
O300        O  0.23257168  0.74530283  0.48383420    -0.74200
C301        C  0.25446697  0.74467114  0.49693692     0.98200
O302        O  0.32845303  0.74287313  0.44628598    -0.63000
O303        O  0.26392751  0.67409766  0.32228451    -0.57800
O304        O  0.30951348  0.70864588  0.41869930    -0.94500
O305        O  0.28648936  0.68011577  0.38954947    -0.92900
O306        O  0.30219793  0.71994158  0.28721169    -0.93200
O307        O  0.33081472  0.75419390  0.31988671    -0.92000
C308        C  0.30574795  0.68646380  0.40699155     1.17000
H309        H  0.24728020  0.71915578  0.29923318     0.33000
H310        H  0.30302403  0.78574132  0.36987637     0.43800
H311        H  0.25238779  0.71010126  0.43906597     0.37400
H312        H  0.19974522  0.78726175  0.38606069     0.33800
H313        H  0.31151154  0.78793856  0.27467867     0.25600
H314        H  0.24290107  0.84870424  0.41578199     0.31600
H315        H  0.21493978  0.79283670  0.47093250     0.37500
H316        H  0.30643337  0.72697602  0.26488978     0.31900
H317        H  0.28184549  0.67848604  0.31872857     0.30800
H318        H  0.23656516  0.65195462  0.38670473     0.32500
H319        H  0.20913203  0.70254718  0.46166494     0.31500
H320        H  0.33506085  0.74790872  0.34255066     0.35500
H321        H  0.34095366  0.75021930  0.43060598     0.28200
H322        H  0.17539727  0.76978925  0.28070836     0.32400
H323        H  0.16430379  0.75192149  0.44847591     0.35300
H324        H  0.26438188  0.65719281  0.33247722     0.27900
H325        H  0.32865755  0.75389435  0.46639452     0.40700
H326        H  0.25891326  0.83862207  0.32732425     0.30800
H327        H  0.29025422  0.80417563  0.29126355     0.38400
H328        H  0.19245522  0.70144649  0.42937294     0.30300
H329        H  0.24398620  0.82776871  0.44328761     0.30300
H330        H  0.16108178  0.76406705  0.31455848     0.30600
Zr331      Zr  0.21162127  0.74955450  0.82728479     2.17500
O332        O  0.17079689  0.74658648  0.79957666    -0.51800
O333        O  0.22550395  0.74739639  0.76807652    -0.75000
O334        O  0.19073403  0.79007241  0.81827402    -0.81700
O335        O  0.20903297  0.68077044  0.85546232    -0.83500
O336        O  0.21331712  0.82067822  0.84378024    -0.79100
O337        O  0.18735891  0.71059217  0.82718241    -0.90700
O338        O  0.26787112  0.74296720  0.76616397    -0.76700
O339        O  0.24775773  0.77577739  0.82362566    -0.86200
O340        O  0.24692665  0.72183167  0.82573302    -0.85900
O341        O  0.21035484  0.77504710  0.87766482    -0.72600
O342        O  0.21075819  0.72617830  0.87894952    -0.84800
Zr343      Zr  0.28241969  0.75181192  0.92369296     2.26400
Zr344      Zr  0.24723268  0.80082487  0.87384217     2.06300
Zr345      Zr  0.24682553  0.69952178  0.87796818     2.10000
Zr346      Zr  0.28297813  0.74813428  0.82260750     1.78800
O347        O  0.23275848  0.67002426  0.92074018    -0.93600
O348        O  0.29949820  0.78249643  0.78881073    -0.41400
O349        O  0.28308985  0.72572362  0.87433214    -0.78000
O350        O  0.28377141  0.77446892  0.87129412    -0.96700
O351        O  0.24646578  0.77838458  0.92572757    -0.90000
O352        O  0.24671553  0.72476600  0.92795000    -0.92900
C353        C  0.24641121  0.74452362  0.75194182     1.00900
C354        C  0.18999656  0.68816126  0.83842001     1.13800
C355        C  0.19460239  0.81318425  0.82620927     1.04600
O356        O  0.26447621  0.83299930  0.83713830    -0.95000
O357        O  0.28220903  0.82205998  0.90027635    -0.90800
O358        O  0.30439509  0.79229004  0.92800064    -0.83900
C359        C  0.30104213  0.81495777  0.91789629     1.11200
O360        O  0.16526401  0.74918902  0.92115725    -0.97000
Zr361      Zr  0.21074492  0.75144488  0.92864458     1.88900
O362        O  0.26861504  0.75430052  0.98246051    -0.73600
O363        O  0.22921811  0.83070730  0.91369872    -0.52900
O364        O  0.18943615  0.78764534  0.95335036    -0.97600
O365        O  0.19385238  0.71508690  0.95821140    -0.54800
O366        O  0.22612579  0.75657612  0.98510544    -0.74200
C367        C  0.24783416  0.75648531  0.99887464     0.98200
O368        O  0.32211636  0.74906907  0.95406339    -0.63000
O369        O  0.26029806  0.66506450  0.84151784    -0.57800
O370        O  0.30639809  0.71265735  0.92712321    -0.94500
O371        O  0.28515541  0.68158612  0.90013018    -0.92900
O372        O  0.30413403  0.70981581  0.80443219    -0.93200
O373        O  0.32855900  0.75207237  0.82566853    -0.92000
C374        C  0.30402826  0.68983292  0.91690854     1.17000
H375        H  0.24597296  0.71035402  0.80695270     0.33000
H376        H  0.29899670  0.78410699  0.86857519     0.43800
H377        H  0.24769134  0.71448467  0.94783394     0.37400
H378        H  0.19521851  0.78499337  0.87909973     0.33800
H379        H  0.30783031  0.77429054  0.76933189     0.25600
H380        H  0.22967807  0.84698841  0.90182368     0.31600
H381        H  0.18372654  0.78205104  0.97584243     0.37500
H382        H  0.30387068  0.69873609  0.82434816     0.31900
H383        H  0.25302936  0.64982986  0.85189351     0.30800
H384        H  0.23854026  0.65341484  0.91257852     0.32500
H385        H  0.20657574  0.71070583  0.97530425     0.31500
H386        H  0.33248381  0.74957830  0.84973408     0.35500
H387        H  0.33512644  0.75587582  0.93869430     0.28200
H388        H  0.17192593  0.75725681  0.77930291     0.32400
H389        H  0.15801884  0.74804120  0.94408297     0.35300
H390        H  0.25080863  0.66709875  0.82035799     0.27900
H391        H  0.32087372  0.76142333  0.97265827     0.40700
H392        H  0.28022393  0.82558607  0.82813353     0.30800
H393        H  0.28448286  0.79071603  0.77915377     0.38400
H394        H  0.19469790  0.70124210  0.94157620     0.30300
H395        H  0.21113178  0.82632164  0.91486199     0.30300
H396        H  0.15855617  0.75511051  0.81462521     0.30600
Zr397      Zr  0.49948416  0.96523765  0.94971474     2.17500
O398        O  0.50393528  0.92413441  0.92304457    -0.51800
O399        O  0.49783996  0.97861942  0.89064053    -0.75000
O400        O  0.45924699  0.94247463  0.94511439    -0.81700
O401        O  0.57014330  0.96538411  0.97183868    -0.83500
O402        O  0.42913643  0.96441284  0.97325961    -0.79100
O403        O  0.53971019  0.94272592  0.94571659    -0.90700
O404        O  0.49803860  0.02108905  0.88926417    -0.76700
O405        O  0.47136903  0.00008464  0.94950866    -0.86200
O406        O  0.52539311  0.00186079  0.94561303    -0.85900
O407        O  0.47688681  0.96322085  0.00251434    -0.72600
O408        O  0.52591389  0.96584583  0.99842946    -0.84800
Zr409      Zr  0.50009518  0.03624487  0.04706540     2.26400
Zr410      Zr  0.44932224  0.99885134  0.00230324     2.06300
Zr411      Zr  0.55096985  0.00289125  0.99503488     2.10000
Zr412      Zr  0.49719537  0.03652545  0.94603081     1.78800
O413        O  0.58529655  0.98997415  0.03148355    -0.93600
O414        O  0.45881052  0.05176884  0.91976943    -0.41400
O415        O  0.52324547  0.03818453  0.99488601    -0.78000
O416        O  0.47407500  0.03631319  0.99746124    -0.96700
O417        O  0.47509960  0.99929561  0.05145919    -0.90000
O418        O  0.52868848  0.00174825  0.04739452    -0.92900
C419        C  0.49796392  0.99964734  0.87480481     1.00900
C420        C  0.56258667  0.94607634  0.95533750     1.13800
C421        C  0.43640950  0.94565280  0.95536406     1.04600
O422        O  0.41480487  0.01564657  0.96926723    -0.95000
O423        O  0.42800164  0.03215385  0.03289711    -0.90800
O424        O  0.45892638  0.05665105  0.05491628    -0.83900
C425        C  0.43572031  0.05192124  0.04816709     1.11200
O426        O  0.50332189  0.91921700  0.04527059    -0.97000
Zr427      Zr  0.50365782  0.96480903  0.05041573     1.88900
O428        O  0.50286310  0.02228287  0.10579260    -0.73600
O429        O  0.42206090  0.97908276  0.04386004    -0.52900
O430        O  0.47005538  0.94482331  0.08252453    -0.97600
O431        O  0.54378680  0.94745155  0.06868646    -0.54800
O432        O  0.50611716  0.97994662  0.10703977    -0.74200
C433        C  0.50520964  0.00136427  0.12154335     0.98200
O434        O  0.50223015  0.07676029  0.07581525    -0.63000
O435        O  0.58043101  0.01795152  0.95256702    -0.57800
O436        O  0.53897275  0.06089272  0.04889428    -0.94500
O437        O  0.56951877  0.03999612  0.02027035    -0.92900
O438        O  0.53210170  0.05895234  0.91999571    -0.93200
O439        O  0.49271162  0.08194290  0.94959145    -0.92000
C440        C  0.56178648  0.05853004  0.03826424     1.17000
H441        H  0.53580284  0.00149599  0.92566414     0.33000
H442        H  0.46360320  0.05101823  0.99580332     0.43800
H443        H  0.54030455  0.00307113  0.06592243     0.37400
H444        H  0.46765723  0.94774768  0.00497522     0.33800
H445        H  0.46458100  0.06055575  0.89924199     0.25600
H446        H  0.40497930  0.98007896  0.03412124     0.31600
H447        H  0.46141673  0.95870117  0.09453086     0.37500
H448        H  0.52476372  0.06707255  0.89996040     0.31900
H449        H  0.57582371  0.03575686  0.94922281     0.30800
H450        H  0.60036819  0.98954032  0.01674627     0.32500
H451        H  0.55139631  0.96053285  0.08315950     0.31500
H452        H  0.49686416  0.08611738  0.97320151     0.35500
H453        H  0.49411282  0.08898405  0.06063654     0.28200
H454        H  0.49249803  0.92425102  0.90347693     0.32400
H455        H  0.50822758  0.91284943  0.06765106     0.35300
H456        H  0.59687483  0.01858606  0.96414000     0.27900
H457        H  0.49083995  0.07548781  0.09552376     0.40700
H458        H  0.42004219  0.03297757  0.96374423     0.30800
H459        H  0.45025741  0.03653668  0.91122323     0.38400
H460        H  0.55449108  0.94717745  0.04823661     0.30300
H461        H  0.42641807  0.96103650  0.04282133     0.30300
H462        H  0.49647488  0.91194565  0.93896161     0.30600
Zr463      Zr  0.50345534  0.96246789  0.45068372     2.17500
O464        O  0.51141361  0.92281436  0.42155734    -0.51800
O465        O  0.50605034  0.97451099  0.39168420    -0.75000
O466        O  0.46529101  0.93794155  0.44141753    -0.81700
O467        O  0.57177599  0.96473086  0.48251618    -0.83500
O468        O  0.43166329  0.96044999  0.46013123    -0.79100
O469        O  0.54365267  0.94046958  0.45463677    -0.90700
O470        O  0.50425092  0.01685753  0.38769239    -0.76700
O471        O  0.47484297  0.99646795  0.44388396    -0.86200
O472        O  0.52850274  0.99961846  0.44885440    -0.85900
O473        O  0.47601909  0.96048119  0.49910743    -0.72600
O474        O  0.52516835  0.96418708  0.50331166    -0.84800
Zr475      Zr  0.49341451  0.03458469  0.54444641     2.26400
Zr476      Zr  0.44800170  0.99530391  0.49236524     2.06300
Zr477      Zr  0.54947379  0.00176951  0.50183254     2.10000
Zr478      Zr  0.49970965  0.03362873  0.44373019     1.78800
O479        O  0.58223860  0.98990267  0.54131061    -0.93600
O480        O  0.46392566  0.05037026  0.41298718    -0.41400
O481        O  0.52104958  0.03620728  0.49634875    -0.78000
O482        O  0.47198617  0.03341033  0.49108213    -0.96700
O483        O  0.46873768  0.99728349  0.54574596    -0.90000
O484        O  0.52262343  0.00085900  0.55027658    -0.92900
C485        C  0.50610865  0.99491743  0.37471451     1.00900
C486        C  0.56568889  0.94461740  0.46665382     1.13800
C487        C  0.44157806  0.94111705  0.44613654     1.04600
O488        O  0.41675252  0.00991705  0.45238857    -0.95000
O489        O  0.42351312  0.02869440  0.51740096    -0.90800
O490        O  0.45066056  0.05237197  0.54805098    -0.83900
C491        C  0.42864451  0.04762811  0.53611926     1.11200
O492        O  0.49696473  0.91795623  0.54692360    -0.97000
Zr493      Zr  0.49788838  0.96362521  0.55108710     1.88900
O494        O  0.49385932  0.02246505  0.60409171    -0.73600
O495        O  0.41693590  0.97481330  0.52815483    -0.52900
O496        O  0.45995020  0.94762010  0.57822146    -0.97600
O497        O  0.53427619  0.94362751  0.57668018    -0.54800
O498        O  0.49844843  0.98027070  0.60720992    -0.74200
C499        C  0.49661228  0.00198107  0.62073794     0.98200
O500        O  0.49229882  0.07616588  0.57036073    -0.63000
O501        O  0.58034394  0.01866139  0.46247928    -0.57800
O502        O  0.53084854  0.06101606  0.54921337    -0.94500
O503        O  0.56473159  0.03894891  0.53029024    -0.92900
O504        O  0.53628053  0.05585723  0.42181284    -0.93200
O505        O  0.49585446  0.07908474  0.44747303    -0.92000
C506        C  0.55462325  0.05825548  0.54418363     1.17000
H507        H  0.54049767  0.99901728  0.43054529     0.33000
H508        H  0.46134427  0.04786543  0.48797551     0.43800
H509        H  0.53272059  0.00271180  0.57026661     0.37400
H510        H  0.46693882  0.94486973  0.50078458     0.33800
H511        H  0.47135606  0.05813537  0.39265716     0.25600
H512        H  0.40155560  0.97387004  0.51425031     0.31600
H513        H  0.46529034  0.94258306  0.60102888     0.37500
H514        H  0.54595287  0.04311905  0.40898124     0.31900
H515        H  0.57777578  0.03705035  0.46326938     0.30800
H516        H  0.59726900  0.99957454  0.53428928     0.32500
H517        H  0.52834286  0.93801354  0.59904754     0.31500
H518        H  0.49282422  0.08254467  0.47163979     0.35500
H519        H  0.48368864  0.08719591  0.55407563     0.28200
H520        H  0.50028113  0.92271242  0.40168207     0.32400
H521        H  0.49429110  0.91180654  0.57012083     0.35300
H522        H  0.59678718  0.01600403  0.47350190     0.27900
H523        H  0.48059068  0.07481583  0.58971518     0.40700
H524        H  0.42043985  0.02797764  0.44939621     0.30800
H525        H  0.45491886  0.03541433  0.40441602     0.38400
H526        H  0.54607022  0.95753533  0.58156094     0.30300
H527        H  0.42275621  0.95721969  0.52980800     0.30300
H528        H  0.50458181  0.90958821  0.43644884     0.30600
Zr529      Zr  0.71670325  0.75007168  0.42928112     2.17500
O530        O  0.67645796  0.75493385  0.45854483    -0.51800
O531        O  0.73155874  0.75089930  0.48758174    -0.75000
O532        O  0.69405109  0.71051631  0.43758027    -0.81700
O533        O  0.71922631  0.82005388  0.40802607    -0.83500
O534        O  0.71651627  0.67877269  0.41380966    -0.79100
O535        O  0.69483837  0.79047215  0.43276525    -0.90700
O536        O  0.77420719  0.74993185  0.48836393    -0.76700
O537        O  0.75193665  0.72246048  0.43131695    -0.86200
O538        O  0.75329859  0.77586300  0.43015011    -0.85900
O539        O  0.71388380  0.72499021  0.37874857    -0.72600
O540        O  0.71574447  0.77397605  0.37819720    -0.84800
Zr541      Zr  0.78620657  0.74646188  0.33042153     2.26400
Zr542      Zr  0.74976828  0.69779784  0.38085171     2.06300
Zr543      Zr  0.75301855  0.79897038  0.37887914     2.10000
Zr544      Zr  0.78848247  0.74840238  0.43107661     1.78800
O545        O  0.73530975  0.82872697  0.33921553    -0.93600
O546        O  0.80759487  0.71168756  0.45675831    -0.41400
O547        O  0.78880843  0.77190820  0.38023578    -0.78000
O548        O  0.78722237  0.72280335  0.38198159    -0.96700
O549        O  0.74942272  0.72082090  0.32925249    -0.90000
O550        O  0.75123541  0.77452857  0.32844499    -0.92900
C551        C  0.75278367  0.75100611  0.50303376     1.00900
C552        C  0.69952342  0.81328633  0.42424555     1.13800
C553        C  0.69760380  0.68721251  0.43049929     1.04600
O554        O  0.76648629  0.66487591  0.41661511    -0.95000
O555        O  0.78354875  0.67627299  0.35138135    -0.90800
O556        O  0.80688842  0.70559367  0.32399443    -0.83900
C557        C  0.80264952  0.68294818  0.33362697     1.11200
O558        O  0.66892923  0.74593238  0.33488860    -0.97000
Zr559      Zr  0.71451634  0.74886021  0.32814869     1.88900
O560        O  0.77189748  0.74930989  0.27217264    -0.73600
O561        O  0.72832902  0.66831239  0.34382260    -0.52900
O562        O  0.69843768  0.71132309  0.30040668    -0.97600
O563        O  0.69192176  0.78469706  0.30528001    -0.54800
O564        O  0.72932913  0.75203034  0.27090844    -0.74200
C565        C  0.75092577  0.75160319  0.25651927     0.98200
O566        O  0.82503283  0.74208070  0.29777930    -0.63000
O567        O  0.77139597  0.83134926  0.41465393    -0.57800
O568        O  0.81172594  0.78484168  0.32917183    -0.94500
O569        O  0.78950033  0.81702888  0.35210414    -0.92900
O570        O  0.80822023  0.78568568  0.45479343    -0.93200
O571        O  0.83410438  0.74802872  0.42458180    -0.92000
C572        C  0.80901757  0.80808911  0.33730362     1.17000
H573        H  0.75315681  0.78704814  0.44931036     0.33000
H574        H  0.80210889  0.71258096  0.38387284     0.43800
H575        H  0.75212578  0.78548817  0.30920200     0.37400
H576        H  0.69845033  0.71551455  0.37763505     0.33800
H577        H  0.81614534  0.71821728  0.47705324     0.25600
H578        H  0.72917132  0.65204949  0.35570237     0.31600
H579        H  0.69315387  0.71694356  0.27782437     0.37500
H580        H  0.81773573  0.77956629  0.47446166     0.31900
H581        H  0.76574742  0.84738882  0.40475263     0.30800
H582        H  0.74522888  0.84426853  0.34241508     0.32500
H583        H  0.68578417  0.77897940  0.28306596     0.31500
H584        H  0.83704407  0.74281582  0.40096094     0.35500
H585        H  0.82449288  0.75535794  0.28045816     0.28200
H586        H  0.67723633  0.74381233  0.47839257     0.32400
H587        H  0.66201925  0.74424610  0.31191563     0.35300
H588        H  0.76237016  0.83035566  0.43643694     0.27900
H589        H  0.83886051  0.74702829  0.31304457     0.40700
H590        H  0.78432137  0.66950606  0.42015626     0.30800
H591        H  0.79322479  0.70188625  0.46565755     0.38400
H592        H  0.70515028  0.79714673  0.29993286     0.30300
H593        H  0.71035610  0.67314449  0.34510505     0.30300
H594        H  0.66362245  0.74733961  0.44366576     0.30600
Zr595      Zr  0.71507943  0.75206272  0.92731677     2.17500
O596        O  0.67334905  0.75727029  0.95240259    -0.51800
O597        O  0.72778510  0.75382935  0.98663036    -0.75000
O598        O  0.69259599  0.71248855  0.93616792    -0.81700
O599        O  0.71552672  0.82089228  0.89795483    -0.83500
O600        O  0.71617111  0.68019685  0.91586403    -0.79100
O601        O  0.69321889  0.79239251  0.92812434    -0.90700
O602        O  0.77036607  0.75372532  0.98875851    -0.76700
O603        O  0.75033925  0.72480434  0.93217836    -0.86200
O604        O  0.75136823  0.77845415  0.92856700    -0.85900
O605        O  0.71346087  0.72575039  0.87776953    -0.72600
O606        O  0.71548011  0.77468036  0.87518418    -0.84800
Zr607      Zr  0.78704620  0.74642962  0.83202270     2.26400
Zr608      Zr  0.74939216  0.69899108  0.88269158     2.06300
Zr609      Zr  0.75241331  0.80010236  0.87603571     2.10000
Zr610      Zr  0.78654880  0.75115018  0.93257933     1.78800
O611        O  0.73968256  0.82914824  0.83216444    -0.93600
O612        O  0.80415704  0.71507957  0.96158856    -0.41400
O613        O  0.78814616  0.77325377  0.88067917    -0.78000
O614        O  0.78676409  0.72423237  0.88485757    -0.96700
O615        O  0.75037060  0.72069150  0.83020930    -0.90000
O616        O  0.75211306  0.77427341  0.82690982    -0.92900
C617        C  0.74872143  0.75452964  0.00277870     1.00900
C618        C  0.69661355  0.81451823  0.91609517     1.13800
C619        C  0.69665331  0.68902519  0.93080241     1.04600
O620        O  0.76222774  0.66327240  0.91648106    -0.95000
O621        O  0.78471289  0.67696943  0.85829374    -0.90800
O622        O  0.80784510  0.70549448  0.82914302    -0.83900
C623        C  0.80388630  0.68328646  0.84056210     1.11200
O624        O  0.66981565  0.74599226  0.83183016    -0.97000
Zr625      Zr  0.71546518  0.74859819  0.82627576     1.88900
O626        O  0.77421255  0.74814741  0.77299224    -0.73600
O627        O  0.72909798  0.67232394  0.84103841    -0.52900
O628        O  0.69915514  0.71245610  0.79556840    -0.97600
O629        O  0.69517641  0.78522893  0.80183886    -0.54800
O630        O  0.73169738  0.75058543  0.76993058    -0.74200
C631        C  0.75357923  0.75011666  0.75645964     0.98200
O632        O  0.82623026  0.74019860  0.80077436    -0.63000
O633        O  0.76503296  0.83400358  0.91359113    -0.57800
O634        O  0.81307613  0.78445071  0.82972550    -0.94500
O635        O  0.79125100  0.81668682  0.85340151    -0.92900
O636        O  0.80745060  0.78806035  0.95564574    -0.93200
O637        O  0.83228083  0.75047518  0.92842400    -0.92000
C638        C  0.81070155  0.80760769  0.83847234     1.17000
H639        H  0.75057850  0.79020398  0.94710385     0.33000
H640        H  0.80173497  0.71437454  0.88825642     0.43800
H641        H  0.75355513  0.78471248  0.80721935     0.37400
H642        H  0.69812218  0.71612090  0.87638248     0.33800
H643        H  0.81140088  0.72206914  0.98252043     0.25600
H644        H  0.73296654  0.65500834  0.84827912     0.31600
H645        H  0.71417811  0.70396984  0.78604883     0.37500
H646        H  0.79488511  0.79604186  0.97071345     0.31900
H647        H  0.78182387  0.82899017  0.92187611     0.30800
H648        H  0.73847413  0.84564884  0.84358319     0.32500
H649        H  0.70869093  0.79410293  0.78947227     0.31500
H650        H  0.83606150  0.75815929  0.90634165     0.35500
H651        H  0.82613390  0.75281655  0.78257952     0.28200
H652        H  0.67310371  0.74666985  0.97278641     0.32400
H653        H  0.66324384  0.74691412  0.80861773     0.35300
H654        H  0.76835560  0.84846141  0.89867137     0.27900
H655        H  0.83990073  0.74552855  0.81605674     0.40700
H656        H  0.77517831  0.67005133  0.93183392     0.30800
H657        H  0.78935221  0.70534715  0.96926352     0.38400
H658        H  0.69131127  0.79632064  0.82121923     0.30300
H659        H  0.71084725  0.67427979  0.84545230     0.30300
H660        H  0.66144314  0.74916438  0.93664166     0.30600
Zr661      Zr  0.71510355  0.25529100  0.07800193     2.17500
O662        O  0.67487023  0.25531718  0.04857047    -0.51800
O663        O  0.72841931  0.25499399  0.01877631    -0.75000
O664        O  0.69497508  0.29680444  0.07465862    -0.81700
O665        O  0.71117417  0.18505905  0.09909861    -0.83500
O666        O  0.71718811  0.32531311  0.10507172    -0.79100
O667        O  0.68928872  0.21694183  0.07548891    -0.90700
O668        O  0.77098667  0.25394308  0.01607275    -0.76700
O669        O  0.75173605  0.28122533  0.07705433    -0.86200
O670        O  0.75015762  0.22744594  0.07268358    -0.85900
O671        O  0.71479749  0.27749191  0.13109416    -0.72600
O672        O  0.71427897  0.22868682  0.12655770    -0.84800
Zr673      Zr  0.78694544  0.24990489  0.17360638     2.26400
Zr674      Zr  0.75210054  0.30296803  0.13009642     2.06300
Zr675      Zr  0.74992537  0.20167679  0.12178630     2.10000
Zr676      Zr  0.78663649  0.25324313  0.07254785     1.78800
O677        O  0.73542477  0.16829165  0.15872131    -0.93600
O678        O  0.80645920  0.28968838  0.04679472    -0.41400
O679        O  0.78681437  0.22720202  0.12119482    -0.78000
O680        O  0.78802323  0.27594251  0.12409709    -0.96700
O681        O  0.75143078  0.27704194  0.17917748    -0.90000
O682        O  0.75062311  0.22351708  0.17451299    -0.92900
C683        C  0.74932221  0.25416992  0.00231297     1.00900
C684        C  0.69173480  0.19376896  0.08408673     1.13800
C685        C  0.69847882  0.31902616  0.08658258     1.04600
O686        O  0.76824758  0.33724769  0.09591921    -0.95000
O687        O  0.78902341  0.32111304  0.15629514    -0.90800
O688        O  0.81005180  0.28961371  0.18253278    -0.83900
C689        C  0.80766014  0.31262618  0.17321853     1.11200
O690        O  0.66938373  0.24882588  0.17507882    -0.97000
Zr691      Zr  0.71515204  0.25064617  0.17884073     1.88900
O692        O  0.77330690  0.24785556  0.23269338    -0.73600
O693        O  0.73693126  0.33116714  0.17409893    -0.52900
O694        O  0.69463358  0.28647862  0.20564733    -0.97600
O695        O  0.69749942  0.21250204  0.20304855    -0.54800
O696        O  0.73072056  0.25131205  0.23526456    -0.74200
C697        C  0.75233946  0.24953335  0.24889841     0.98200
O698        O  0.82825254  0.24419253  0.19907727    -0.63000
O699        O  0.76346062  0.17183971  0.07865887    -0.57800
O700        O  0.80902707  0.20945201  0.17400298    -0.94500
O701        O  0.78669392  0.18083120  0.14399766    -0.92900
O702        O  0.80532083  0.21630666  0.04625849    -0.93200
O703        O  0.83237616  0.25288422  0.07617387    -0.92000
C704        C  0.80565912  0.18723006  0.16197197     1.17000
H705        H  0.74904336  0.21723458  0.05263666     0.33000
H706        H  0.80356351  0.28513457  0.12206371     0.43800
H707        H  0.75135372  0.21183068  0.19295697     0.37400
H708        H  0.69974145  0.28733598  0.13424402     0.33800
H709        H  0.81289983  0.28355672  0.02484113     0.25600
H710        H  0.73518801  0.34765000  0.16296814     0.31600
H711        H  0.69070925  0.28097247  0.22883056     0.37500
H712        H  0.81366762  0.22267256  0.02568331     0.31900
H713        H  0.76283476  0.15528716  0.08982755     0.30800
H714        H  0.73714461  0.15275236  0.14517653     0.32500
H715        H  0.70975494  0.20697125  0.22014542     0.31500
H716        H  0.83588086  0.24891093  0.09999193     0.35500
H717        H  0.84048509  0.25198372  0.18341419     0.28200
H718        H  0.67622492  0.26822599  0.03081891     0.32400
H719        H  0.66315382  0.24792076  0.19855364     0.35300
H720        H  0.74962513  0.17123259  0.06209836     0.27900
H721        H  0.82840297  0.25494329  0.21944345     0.40700
H722        H  0.76250225  0.33346498  0.07280684     0.30800
H723        H  0.79233289  0.30093752  0.04095589     0.38400
H724        H  0.69882836  0.19982114  0.18486770     0.30300
H725        H  0.71943668  0.32571675  0.17856549     0.30300
H726        H  0.66233661  0.26197394  0.06483192     0.30600
Zr727      Zr  0.70990873  0.24957664  0.57777840     2.17500
O728        O  0.66705847  0.24659575  0.55627078    -0.51800
O729        O  0.72231559  0.24794107  0.51847876    -0.75000
O730        O  0.69059526  0.29058685  0.56790117    -0.81700
O731        O  0.70428634  0.18144116  0.60640992    -0.83500
O732        O  0.71460302  0.32052916  0.59273092    -0.79100
O733        O  0.68555572  0.21105193  0.57403431    -0.90700
O734        O  0.76491501  0.24832715  0.51543735    -0.76700
O735        O  0.74677936  0.27470443  0.57319403    -0.86200
O736        O  0.74430939  0.22078391  0.57564779    -0.85900
O737        O  0.70972518  0.27511078  0.62795162    -0.72600
O738        O  0.70853141  0.22635491  0.62934378    -0.84800
Zr739      Zr  0.78152783  0.24946267  0.67279010     2.26400
Zr740      Zr  0.74740595  0.29961924  0.62349653     2.06300
Zr741      Zr  0.74349945  0.19836127  0.62775889     2.10000
Zr742      Zr  0.78111269  0.24602318  0.57183550     1.78800
O743        O  0.72773801  0.16928396  0.67002197    -0.93600
O744        O  0.80453384  0.28057512  0.54677967    -0.41400
O745        O  0.78069484  0.22329882  0.62337404    -0.78000
O746        O  0.78319644  0.27221352  0.62057237    -0.96700
O747        O  0.74652283  0.27728561  0.67553615    -0.90000
O748        O  0.74489688  0.22365861  0.67755274    -0.92900
C749        C  0.74312012  0.24821374  0.50187394     1.00900
C750        C  0.68652507  0.18915267  0.58725641     1.13800
C751        C  0.69543163  0.31351139  0.57570135     1.04600
O752        O  0.76504206  0.33246124  0.58813069    -0.95000
O753        O  0.78305190  0.31962462  0.64954211    -0.90800
O754        O  0.80395199  0.28967978  0.67876806    -0.83900
C755        C  0.80127376  0.31228008  0.66802437     1.11200
O756        O  0.66417292  0.25480590  0.67591210    -0.97000
Zr757      Zr  0.70991332  0.25157514  0.67891425     1.88900
O758        O  0.76866725  0.25039965  0.73194633    -0.73600
O759        O  0.72933585  0.32963159  0.66317354    -0.52900
O760        O  0.69446082  0.28949884  0.70652942    -0.97600
O761        O  0.68889346  0.21565441  0.70451630    -0.54800
O762        O  0.72608594  0.25096596  0.73503607    -0.74200
C763        C  0.74783546  0.25059754  0.74852695     0.98200
O764        O  0.82253467  0.24536981  0.69963442    -0.63000
O765        O  0.75399656  0.16366232  0.59017143    -0.57800
O766        O  0.80414444  0.20970034  0.67633608    -0.94500
O767        O  0.78120081  0.17923880  0.65066641    -0.92900
O768        O  0.79600082  0.20767176  0.54483475    -0.93200
O769        O  0.82654256  0.24077372  0.57539965    -0.92000
C770        C  0.80064279  0.18688229  0.66685277     1.17000
H771        H  0.74287673  0.20943420  0.55674342     0.33000
H772        H  0.79874952  0.28137221  0.61804903     0.43800
H773        H  0.74562166  0.21316030  0.69726050     0.37400
H774        H  0.69495519  0.28560231  0.62937044     0.33800
H775        H  0.80896803  0.27467838  0.52386244     0.25600
H776        H  0.73287645  0.34624129  0.65315156     0.31600
H777        H  0.68724584  0.28376694  0.72817931     0.37500
H778        H  0.80275268  0.21313526  0.52280075     0.31900
H779        H  0.77217558  0.16566928  0.58530407     0.30800
H780        H  0.73919135  0.15465695  0.66881637     0.32500
H781        H  0.70183705  0.20744406  0.71849217     0.31500
H782        H  0.82956472  0.23590570  0.59903576     0.35500
H783        H  0.83487523  0.25289143  0.68388544     0.28200
H784        H  0.66696836  0.25615120  0.53497946     0.32400
H785        H  0.65797973  0.25314244  0.69932383     0.35300
H786        H  0.75295022  0.14852968  0.60446011     0.27900
H787        H  0.82213793  0.25678397  0.71934289     0.40700
H788        H  0.76112389  0.32722011  0.56482763     0.30800
H789        H  0.79182803  0.29385907  0.54318566     0.38400
H790        H  0.68605354  0.20377946  0.68570228     0.30300
H791        H  0.71089729  0.32755869  0.66100458     0.30300
H792        H  0.65644396  0.25643628  0.57205895     0.30600
Zr793      Zr  0.50406650  0.46976214  0.04823526     2.17500
O794        O  0.50296458  0.43151112  0.08172682    -0.51800
O795        O  0.50548611  0.48604965  0.10628298    -0.75000
O796        O  0.54545055  0.44921977  0.05242397    -0.81700
O797        O  0.43364390  0.46483307  0.02809020    -0.83500
O798        O  0.57426280  0.47100418  0.02234842    -0.79100
O799        O  0.46587230  0.44381805  0.05252498    -0.90700
O800        O  0.50575106  0.52845325  0.10610136    -0.76700
O801        O  0.53058576  0.50576320  0.04615501    -0.86200
O802        O  0.47666813  0.50525974  0.05183323    -0.85900
O803        O  0.52581352  0.46688411  0.99482658    -0.72600
O804        O  0.47677545  0.46762304  0.00029159    -0.84800
Zr805      Zr  0.49886294  0.53775358  0.94884577     2.26400
Zr806      Zr  0.55191535  0.50352290  0.99286635     2.06300
Zr807      Zr  0.44997932  0.50338590  0.00355403     2.10000
Zr808      Zr  0.50317362  0.54117065  0.04887322     1.78800
O809        O  0.41581335  0.48849159  0.96807240    -0.93600
O810        O  0.54138399  0.56041598  0.07071098    -0.41400
O811        O  0.47607469  0.53994890  0.00125303    -0.78000
O812        O  0.52575716  0.53991894  0.99743091    -0.96700
O813        O  0.52529628  0.50176726  0.94466008    -0.90000
O814        O  0.47157702  0.50210277  0.95044927    -0.92900
C815        C  0.50597709  0.50750357  0.12135926     1.00900
C816        C  0.44253914  0.44598177  0.04424047     1.13800
C817        C  0.56805009  0.45277095  0.04149204     1.04600
O818        O  0.58693973  0.52217018  0.02332589    -0.95000
O819        O  0.57055718  0.53738371  0.96074911    -0.90800
O820        O  0.53829343  0.56114420  0.94100268    -0.83900
C821        C  0.56179594  0.55721148  0.94688070     1.11200
O822        O  0.49816444  0.42104426  0.95728795    -0.97000
Zr823      Zr  0.49823817  0.46618461  0.94756194     1.88900
O824        O  0.49643229  0.52218608  0.89079732    -0.73600
O825        O  0.57929551  0.48325427  0.95163931    -0.52900
O826        O  0.53358887  0.44643410  0.91851390    -0.97600
O827        O  0.46032814  0.44676608  0.92488209    -0.54800
O828        O  0.49659764  0.47966271  0.89009902    -0.74200
C829        C  0.49623133  0.50092124  0.87536811     0.98200
O830        O  0.49963387  0.57554454  0.91433940    -0.63000
O831        O  0.42060495  0.51733433  0.04713552    -0.57800
O832        O  0.45932315  0.56147763  0.95060985    -0.94500
O833        O  0.42953774  0.54001616  0.97989489    -0.92900
O834        O  0.46895013  0.56176093  0.07916107    -0.93200
O835        O  0.50223327  0.58637241  0.04009787    -0.92000
C836        C  0.43678036  0.55870024  0.96197988     1.17000
H837        H  0.46687901  0.50507355  0.07234901     0.33000
H838        H  0.53567364  0.55497296  0.99908545     0.43800
H839        H  0.45971011  0.50256198  0.93214785     0.37400
H840        H  0.53561148  0.45171737  0.99277539     0.33800
H841        H  0.53582840  0.56980913  0.09096373     0.25600
H842        H  0.59651479  0.48581275  0.96042368     0.31600
H843        H  0.52621994  0.43846620  0.89829452     0.37500
H844        H  0.45401639  0.55925472  0.06475065     0.31900
H845        H  0.40372527  0.51405839  0.03764907     0.30800
H846        H  0.40040962  0.49602755  0.97792892     0.32500
H847        H  0.45103128  0.46044814  0.91368287     0.31500
H848        H  0.50197879  0.58839034  0.01536335     0.35500
H849        H  0.48525750  0.57402569  0.89871410     0.28200
H850        H  0.51506518  0.43425460  0.10023758     0.32400
H851        H  0.49672777  0.41316214  0.93479377     0.35300
H852        H  0.42219269  0.50503492  0.06557563     0.27900
H853        H  0.49518577  0.58961152  0.92960880     0.40700
H854        H  0.58357229  0.51833203  0.04725945     0.30800
H855        H  0.55137415  0.54628233  0.07965100     0.38400
H856        H  0.44997202  0.44268210  0.94489137     0.30300
H857        H  0.57613962  0.46506774  0.95435719     0.30300
H858        H  0.51063418  0.41823126  0.06750576     0.30600
Zr859      Zr  0.49967528  0.46285921  0.54380829     2.17500
O860        O  0.49696331  0.42229752  0.57182055    -0.51800
O861        O  0.49798455  0.47432276  0.60367919    -0.75000
O862        O  0.54078675  0.44218084  0.54976574    -0.81700
O863        O  0.43040309  0.45905060  0.51550355    -0.83500
O864        O  0.57122839  0.46694132  0.52723356    -0.79100
O865        O  0.46128961  0.43734245  0.54174055    -0.90700
O866        O  0.49558975  0.51658109  0.60849001    -0.76700
O867        O  0.52462981  0.49963295  0.55033760    -0.86200
O868        O  0.47087742  0.49718430  0.54760033    -0.85900
O869        O  0.52547758  0.46442914  0.49369836    -0.72600
O870        O  0.47651849  0.46319728  0.49204575    -0.84800
Zr871      Zr  0.50010077  0.53707233  0.45245948     2.26400
Zr872      Zr  0.55023158  0.50177133  0.50058763     2.06300
Zr873      Zr  0.44849230  0.49816913  0.49548781     2.10000
Zr874      Zr  0.49590341  0.53393872  0.55297685     1.78800
O875        O  0.41789623  0.48321571  0.45468965    -0.93600
O876        O  0.53107617  0.55423629  0.58126452    -0.41400
O877        O  0.47337828  0.53526607  0.50128679    -0.78000
O878        O  0.52257341  0.53729282  0.50485535    -0.96700
O879        O  0.52807015  0.50236932  0.44826709    -0.90000
O880        O  0.47418916  0.50082686  0.44606832    -0.92900
C881        C  0.49659701  0.49462433  0.62119695     1.00900
C882        C  0.43854401  0.43964226  0.53115200     1.13800
C883        C  0.56387923  0.44692284  0.54212132     1.04600
O884        O  0.57984683  0.51805739  0.54183264    -0.95000
O885        O  0.57076930  0.53766260  0.47539263    -0.90800
O886        O  0.54017416  0.55971054  0.44868861    -0.83900
C887        C  0.56292961  0.55656048  0.45862352     1.11200
O888        O  0.50595818  0.42056645  0.44232474    -0.97000
Zr889      Zr  0.50215690  0.46614799  0.44268717     1.88900
O890        O  0.50238924  0.52617903  0.39275069    -0.73600
O891        O  0.58226228  0.48698295  0.46120911    -0.52900
O892        O  0.54111176  0.45245287  0.41560619    -0.97600
O893        O  0.46663521  0.44432455  0.41732619    -0.54800
O894        O  0.49970704  0.48388952  0.38717140    -0.74200
C895        C  0.50084114  0.50604099  0.37500012     0.98200
O896        O  0.49613168  0.57978970  0.43120144    -0.63000
O897        O  0.41652012  0.51196274  0.53581255    -0.57800
O898        O  0.45980388  0.55799533  0.44525709    -0.94500
O899        O  0.42904906  0.53420536  0.46881256    -0.92900
O900        O  0.45671997  0.54935244  0.57747230    -0.93200
O901        O  0.49203043  0.57947097  0.55390983    -0.92000
C902        C  0.43665114  0.55359913  0.45262897     1.17000
H903        H  0.45942786  0.49522924  0.56634666     0.33000
H904        H  0.53176101  0.55268089  0.50832821     0.43800
H905        H  0.46367941  0.50205160  0.42639596     0.37400
H906        H  0.53583429  0.44972483  0.49073623     0.33800
H907        H  0.52403421  0.56032218  0.60290766     0.25600
H908        H  0.59825526  0.48804097  0.47380346     0.31600
H909        H  0.54551609  0.46594217  0.39958901     0.37500
H910        H  0.44642858  0.55450189  0.55799469     0.31900
H911        H  0.40765343  0.52610520  0.52502678     0.30800
H912        H  0.40133473  0.48733180  0.46481481     0.32500
H913        H  0.45918971  0.45648771  0.40150437     0.31500
H914        H  0.49476525  0.58457363  0.53026495     0.35500
H915        H  0.50350699  0.59084923  0.44864020     0.28200
H916        H  0.50753918  0.42376802  0.59215825     0.32400
H917        H  0.50826489  0.41575884  0.41842551     0.35300
H918        H  0.40392564  0.49828393  0.53630714     0.27900
H919        H  0.50768838  0.58094484  0.41165610     0.40700
H920        H  0.57661544  0.53634219  0.54268646     0.30800
H921        H  0.54238092  0.54030432  0.58764206     0.38400
H922        H  0.45403523  0.44295759  0.43565215     0.30300
H923        H  0.57904257  0.46877380  0.45877856     0.30300
H924        H  0.50585023  0.41015096  0.55705971     0.30600
Zr925      Zr  0.00099177  0.53540745  0.30008169     2.17500
O926        O  0.00352797  0.57552961  0.32973860    -0.51800
O927        O  0.00050599  0.52226852  0.35926541    -0.75000
O928        O  0.95965909  0.55593743  0.30515891    -0.81700
O929        O  0.07156396  0.53827617  0.27865373    -0.83500
O930        O  0.93033593  0.53210296  0.27882280    -0.79100
O931        O  0.03960998  0.56042267  0.30231574    -0.90700
O932        O  0.00032239  0.47986888  0.36193050    -0.76700
O933        O  0.97501380  0.49905591  0.30228643    -0.86200
O934        O  0.02880833  0.50042795  0.30458591    -0.85900
O935        O  0.97801689  0.53562193  0.24781121    -0.72600
O936        O  0.02716608  0.53587447  0.25058916    -0.84800
Zr937      Zr  0.00466584  0.46313029  0.20519866     2.26400
Zr938      Zr  0.95246109  0.49857079  0.25032852     2.06300
Zr939      Zr  0.05415289  0.50024258  0.25463123     2.10000
Zr940      Zr  0.00282426  0.46410544  0.30565859     1.78800
O941        O  0.08772413  0.51561203  0.21822349    -0.93600
O942        O  0.96711698  0.44349823  0.33256860    -0.41400
O943        O  0.02841383  0.46355516  0.25634186    -0.78000
O944        O  0.97895725  0.46238093  0.25524374    -0.96700
O945        O  0.97775663  0.49863844  0.20039056    -0.90000
O946        O  0.03150700  0.49905273  0.20275536    -0.92900
C947        C  0.00030448  0.50152028  0.37571009     1.00900
C948        C  0.06292159  0.55766189  0.29407191     1.13800
C949        C  0.93687143  0.55139629  0.29604231     1.04600
O950        O  0.92003552  0.48041950  0.28620220    -0.95000
O951        O  0.93316179  0.46371654  0.22139091    -0.90800
O952        O  0.96450661  0.44088405  0.19730169    -0.83900
C953        C  0.94119981  0.44459434  0.20492940     1.11200
O954        O  0.00211515  0.58012032  0.20293759    -0.97000
Zr955      Zr  0.00446993  0.53451388  0.19899582     1.88900
O956        O  0.00569125  0.47569674  0.14623583    -0.73600
O957        O  0.92269166  0.51542634  0.20988855    -0.52900
O958        O  0.96916150  0.55219882  0.16823760    -0.97600
O959        O  0.04273649  0.55352584  0.17648494    -0.54800
O960        O  0.00635767  0.51807040  0.14258410    -0.74200
C961        C  0.00623165  0.49615369  0.12932300     0.98200
O962        O  0.00938506  0.42206890  0.17857182    -0.63000
O963        O  0.08418791  0.48424726  0.29548183    -0.57800
O964        O  0.04461351  0.44026025  0.20432082    -0.94500
O965        O  0.07450507  0.46408586  0.22956981    -0.92900
O966        O  0.04100596  0.44819125  0.33157778    -0.93200
O967        O  0.00399171  0.41852828  0.30152756    -0.92000
C968        C  0.06738041  0.44428147  0.21382213     1.17000
H969        H  0.03917295  0.50170276  0.32440432     0.33000
H970        H  0.96929171  0.44714087  0.25727897     0.43800
H971        H  0.04302095  0.49797262  0.18393920     0.37400
H972        H  0.96790555  0.55051955  0.24526351     0.33800
H973        H  0.97365419  0.43728641  0.35426783     0.25600
H974        H  0.90615316  0.51466970  0.22143041     0.31600
H975        H  0.96037626  0.53757171  0.15832250     0.37500
H976        H  0.03506840  0.43865101  0.35138533     0.31900
H977        H  0.10070680  0.48497777  0.28389359     0.30800
H978        H  0.10328882  0.50797971  0.22716947     0.32500
H979        H  0.05023865  0.54066355  0.16146154     0.31500
H980        H  0.01336940  0.41507679  0.28043006     0.35500
H981        H  0.00179088  0.40988826  0.19438253     0.28200
H982        H  0.99356344  0.57332867  0.35062369     0.32400
H983        H  0.00515838  0.58631668  0.17983556     0.35300
H984        H  0.08524044  0.49731069  0.31318279     0.27900
H985        H  0.99814690  0.42210549  0.15879385     0.40700
H986        H  0.92546440  0.46286007  0.28969973     0.30800
H987        H  0.95556806  0.45732910  0.33889865     0.38400
H988        H  0.05434350  0.55446192  0.19584214     0.30300
H989        H  0.92665567  0.53354888  0.20867930     0.30300
H990        H  0.99390462  0.58772315  0.31618925     0.30600
Zr991      Zr  0.99775720  0.53336449  0.80187820     2.17500
O992        O  0.00120913  0.57371178  0.83082829    -0.51800
O993        O  0.99816183  0.51940275  0.86019415    -0.75000
O994        O  0.95697011  0.55352313  0.81152348    -0.81700
O995        O  0.06802695  0.53502522  0.77798961    -0.83500
O996        O  0.92639492  0.53001054  0.78725266    -0.79100
O997        O  0.03715454  0.55680728  0.80486665    -0.90700
O998        O  0.99891968  0.47691218  0.86125915    -0.76700
O999        O  0.97183014  0.49699483  0.80431465    -0.86200
O1000       O  0.02568135  0.49831655  0.80235613    -0.85900
O1001       O  0.97230362  0.53526480  0.75200674    -0.72600
O1002       O  0.02190924  0.53557034  0.75080216    -0.84800
Zr1003     Zr  0.99700166  0.46455643  0.70287963     2.26400
Zr1004     Zr  0.94703357  0.49801026  0.75422257     2.06300
Zr1005     Zr  0.04865530  0.49957250  0.75047269     2.10000
Zr1006     Zr  0.99975819  0.46209169  0.80389990     1.78800
O1007       O  0.07766779  0.51688615  0.70905363    -0.93600
O1008       O  0.96532952  0.43952144  0.83084981    -0.41400
O1009       O  0.02286700  0.46300970  0.75231398    -0.78000
O1010       O  0.97377689  0.46183962  0.75506373    -0.96700
O1011       O  0.96998013  0.50013811  0.70238576    -0.90000
O1012       O  0.02364576  0.50060866  0.70076780    -0.92900
C1013       C  0.99854385  0.49838266  0.87579662     1.00900
C1014       C  0.06016100  0.55371339  0.79549813     1.13800
C1015       C  0.93383796  0.54898770  0.80439897     1.04600
O1016       O  0.91601124  0.47838228  0.79087742    -0.95000
O1017       O  0.92625070  0.46430131  0.72460980    -0.90800
O1018       O  0.95667437  0.44200327  0.69773654    -0.83900
C1019       C  0.93367256  0.44539218  0.70716949     1.11200
O1020       O  0.99365685  0.58146607  0.71033336    -0.97000
Zr1021     Zr  0.99655772  0.53622774  0.70150811     1.88900
O1022       O  0.99695629  0.48006412  0.64484759    -0.73600
O1023       O  0.91593206  0.51738222  0.71777634    -0.52900
O1024       O  0.95874358  0.55275816  0.67516438    -0.97600
O1025       O  0.03233086  0.55904366  0.67813628    -0.54800
O1026       O  0.99877936  0.52255378  0.64404261    -0.74200
C1027       C  0.99824535  0.50118819  0.62938337     0.98200
O1028       O  0.00053146  0.42654502  0.66874984    -0.63000
O1029       O  0.08277545  0.48473352  0.78597817    -0.57800
O1030       O  0.03623113  0.44072058  0.69901662    -0.94500
O1031       O  0.06738178  0.46321138  0.72364799    -0.92900
O1032       O  0.03845139  0.44591695  0.82811872    -0.93200
O1033       O  0.00328729  0.41685535  0.79669153    -0.92000
C1034       C  0.05940552  0.44413566  0.70708346     1.17000
H1035       H  0.03696390  0.49904883  0.82131792     0.33000
H1036       H  0.96421359  0.44653179  0.75701112     0.43800
H1037       H  0.03437152  0.50024333  0.68108644     0.37400
H1038       H  0.96204029  0.55017080  0.75117036     0.33800
H1039       H  0.97287888  0.43199585  0.85116079     0.25600
H1040       H  0.89985413  0.51611527  0.73035358     0.31600
H1041       H  0.95126288  0.53832392  0.66306368     0.37500
H1042       H  0.03323922  0.43852742  0.84986319     0.31900
H1043       H  0.07901084  0.46679828  0.78996702     0.30800
H1044       H  0.09451145  0.51123396  0.71637361     0.32500
H1045       H  0.02610033  0.56627775  0.65685859     0.31500
H1046       H  0.00298310  0.41423226  0.77203183     0.35500
H1047       H  0.99356780  0.41280343  0.68265340     0.28200
H1048       H  0.99155937  0.57185990  0.85203627     0.32400
H1049       H  0.99007320  0.58874852  0.68800631     0.35300
H1050       H  0.09784322  0.48460660  0.77122215     0.27900
H1051       H  0.98843342  0.42865077  0.65012346     0.40700
H1052       H  0.92194641  0.46089452  0.79346868     0.30800
H1053       H  0.95405872  0.45281658  0.83969115     0.38400
H1054       H  0.04439596  0.54591549  0.67092853     0.30300
H1055       H  0.92004751  0.53549591  0.71815702     0.30300
H1056       H  0.99153826  0.58588617  0.81729672     0.30600
C1057       C  0.99875652  0.50117136  0.59211370    -0.20300
C1058       C  0.01129050  0.52028745  0.57390462     0.35900
C1059       C  0.00965931  0.52070643  0.53871292    -0.26300
C1060       C  0.99598414  0.50242677  0.52126123     0.02400
C1061       C  0.98367795  0.48319919  0.53925371     0.27200
C1062       C  0.98542033  0.48260897  0.57449524    -0.25400
N1063       N  0.02599492  0.53896151  0.59110203    -0.82800
H1064       H  0.01956665  0.53506602  0.52469125     0.13000
C1065       C  0.99641815  0.50260528  0.48400806     0.02300
N1066       N  0.96921576  0.46457060  0.52163693    -0.81300
H1067       H  0.97569123  0.46802975  0.58831880     0.17800
C1068       C  0.00706976  0.48209981  0.46718082    -0.26200
C1069       C  0.00924579  0.48168398  0.43207731     0.35800
C1070       C  0.99998727  0.50216056  0.41307850    -0.20200
C1071       C  0.98960511  0.52291279  0.43009092    -0.25500
C1072       C  0.98771478  0.52332683  0.46541681     0.27200
H1073       H  0.01431531  0.46654424  0.48168423     0.13000
N1074       N  0.02136749  0.46073109  0.41583265    -0.82700
H1075       H  0.98250001  0.53862777  0.41579659     0.17800
N1076       N  0.97682657  0.54455755  0.48249133    -0.81300
H1077       H  0.03806598  0.46735217  0.40504363     0.33500
H1078       H  0.02654453  0.44713141  0.43335660     0.37900
H1079       H  0.97140451  0.55823928  0.46522010     0.33400
H1080       H  0.96039494  0.53844343  0.49448519     0.30100
H1081       H  0.96140633  0.45171063  0.53850576     0.33400
H1082       H  0.95414597  0.47374747  0.51019509     0.30100
H1083       H  0.04119678  0.52980788  0.60226486     0.38000
H1084       H  0.03361386  0.55182042  0.57407707     0.33500
C1085       C  0.99937541  0.49853931  0.91305996    -0.20300
C1086       C  0.98764466  0.51743247  0.93268119     0.35900
C1087       C  0.98963191  0.51663181  0.96794252    -0.26300
C1088       C  0.00280126  0.49722714  0.98386542     0.02400
C1089       C  0.01433958  0.47833171  0.96435002     0.27200
C1090       C  0.01240152  0.47911197  0.92923487    -0.25400
N1091       N  0.97335242  0.53697183  0.91689378    -0.82800
H1092       H  0.98058307  0.53096902  0.98316126     0.13000
C1093       C  0.00431829  0.49673358  0.02105141     0.02300
N1094       N  0.02823056  0.45857795  0.98031933    -0.81300
H1095       H  0.02155815  0.46465360  0.91435133     0.17800
C1096       C  0.99408834  0.47632645  0.03856599    -0.26200
C1097       C  0.99534851  0.47498097  0.07381656     0.35800
C1098       C  0.00660899  0.49489542  0.09198694    -0.20200
C1099       C  0.01713313  0.51513936  0.07415387    -0.25500
C1100       C  0.01627354  0.51616116  0.03893397     0.27200
H1101       H  0.98503020  0.46138563  0.02457087     0.13000
N1102       N  0.98454425  0.45387572  0.09102979    -0.82700
H1103       H  0.02613113  0.53030413  0.08777578     0.17800
N1104       N  0.02753221  0.53680378  0.02121653    -0.81300
H1105       H  0.97525405  0.44206061  0.07409917     0.33500
H1106       H  0.99942726  0.44334436  0.10066718     0.37900
H1107       H  0.03543081  0.54963625  0.03809216     0.33400
H1108       H  0.04238089  0.52963977  0.00673854     0.30100
H1109       H  0.03548990  0.44607909  0.96240747     0.33400
H1110       H  0.04367660  0.46675869  0.99230918     0.30100
H1111       H  0.95787705  0.52853534  0.90528799     0.38000
H1112       H  0.96610227  0.54940681  0.93489764     0.33500
C1113       C  0.49587286  0.49337874  0.65860610    -0.20300
C1114       C  0.50642955  0.47335107  0.67704875     0.35900
C1115       C  0.50606477  0.47431096  0.71251192    -0.26300
C1116       C  0.49565445  0.49493063  0.72979929     0.02400
C1117       C  0.48480163  0.51463449  0.71146412     0.27200
C1118       C  0.48507832  0.51368806  0.67626541    -0.25400
N1119       N  0.51800925  0.45250226  0.65992263    -0.82800
H1120       H  0.51442996  0.45920680  0.72677125     0.13000
C1121       C  0.49616874  0.49600180  0.76712716     0.02300
N1122       N  0.47341934  0.53553475  0.72876234    -0.81300
H1123       H  0.47666107  0.52902544  0.66252508     0.17800
C1124       C  0.50809509  0.51628501  0.78313902    -0.26200
C1125       C  0.50798461  0.51871853  0.81837442     0.35800
C1126       C  0.49572211  0.50035298  0.83804746    -0.20200
C1127       C  0.48386459  0.48002901  0.82187277    -0.25500
C1128       C  0.48384701  0.47773831  0.78667492     0.27200
H1129       H  0.51761572  0.53024655  0.76797285     0.13000
N1130       N  0.52065935  0.53947176  0.83412143    -0.82700
H1131       H  0.47434257  0.46592521  0.83679700     0.17800
N1132       N  0.47113443  0.45711176  0.77068543    -0.81300
H1133       H  0.52839020  0.55141543  0.81602163     0.33500
H1134       H  0.53576458  0.53222585  0.84774395     0.37900
H1135       H  0.46304567  0.44528504  0.78864519     0.33400
H1136       H  0.45630445  0.46450612  0.75667717     0.30100
H1137       H  0.46642854  0.54859212  0.71164190     0.33400
H1138       H  0.45793844  0.52871731  0.74224160     0.30100
H1139       H  0.53389479  0.45929481  0.64728697     0.38000
H1140       H  0.52449222  0.43928284  0.67718310     0.33500
C1141       C  0.50657324  0.50846754  0.15879205    -0.20300
C1142       C  0.50067021  0.53075751  0.17690578     0.35900
C1143       C  0.50078212  0.53072372  0.21209808    -0.26300
C1144       C  0.50669651  0.50901005  0.22997383     0.02400
C1145       C  0.51314194  0.48689631  0.21226569     0.27200
C1146       C  0.51294282  0.48682676  0.17690083    -0.25400
N1147       N  0.49391541  0.55342540  0.15991936    -0.82800
H1148       H  0.49559177  0.54768647  0.22558208     0.13000
C1149       C  0.50475617  0.50935622  0.26719096     0.02300
N1150       N  0.51978720  0.46458218  0.23033376    -0.81300
H1151       H  0.51783165  0.46977021  0.16347913     0.17800
C1152       C  0.48816434  0.49262359  0.28289858    -0.26200
C1153       C  0.48592605  0.49183271  0.31802100     0.35800
C1154       C  0.50063376  0.50820114  0.33793104    -0.20200
C1155       C  0.51638498  0.52576926  0.32216379    -0.25500
C1156       C  0.51878557  0.52636378  0.28693328     0.27200
H1157       H  0.47688444  0.48011324  0.26758939     0.13000
N1158       N  0.46866419  0.47456438  0.33352674    -0.82700
H1159       H  0.52760763  0.53836593  0.33741167     0.17800
N1160       N  0.53581411  0.54372017  0.27117607    -0.81300
H1161       H  0.45948174  0.46373843  0.31535193     0.33500
H1162       H  0.45477612  0.48515285  0.34574862     0.37900
H1163       H  0.54467085  0.55492307  0.28923080     0.33400
H1164       H  0.54996390  0.53324245  0.25933198     0.30100
H1165       H  0.52394348  0.44991965  0.21366351     0.33400
H1166       H  0.53630704  0.46838351  0.24358422     0.30100
H1167       H  0.50652168  0.56749260  0.16715272     0.38000
H1168       H  0.47590171  0.55872479  0.16792759     0.33500
C1169       C  0.82114772  0.33100856  0.67511535    -0.20300
C1170       C  0.83311283  0.33284250  0.70660289     0.35900
C1171       C  0.85197863  0.35108638  0.71139554    -0.26300
C1172       C  0.85888242  0.36755499  0.68540487     0.02400
C1173       C  0.84674031  0.36581668  0.65408489     0.27200
C1174       C  0.82809945  0.34755060  0.64925827    -0.25400
N1175       N  0.82571771  0.31661730  0.73367889    -0.82800
H1176       H  0.86123935  0.35262728  0.73552334     0.13000
C1177       C  0.87822498  0.38717108  0.69141673     0.02300
N1178       N  0.85320576  0.38282741  0.62743153    -0.81300
H1179       H  0.81896432  0.34615234  0.62501905     0.17800
C1180       C  0.89998307  0.38780830  0.67126146    -0.26200
C1181       C  0.91799768  0.40700313  0.67487322     0.35800
C1182       C  0.91454579  0.42559516  0.69998271    -0.20200
C1183       C  0.89264971  0.42472950  0.72015350    -0.25500
C1184       C  0.87439095  0.40596751  0.71585707     0.27200
H1185       H  0.90268893  0.37342821  0.65224137     0.13000
N1186       N  0.93944272  0.40783468  0.65275348    -0.82700
H1187       H  0.88969571  0.43872481  0.73960279     0.17800
N1188       N  0.85178948  0.40610443  0.73591837    -0.81300
H1189       H  0.93921616  0.39269363  0.63595418     0.33500
H1190       H  0.93784420  0.42405628  0.63822880     0.37900
H1191       H  0.85187888  0.42114665  0.75287889     0.33400
H1192       H  0.83663707  0.40908707  0.71974661     0.30100
H1193       H  0.84265198  0.37895121  0.60591117     0.33400
H1194       H  0.84818466  0.40089963  0.63528683     0.30100
H1195       H  0.80699677  0.32075114  0.73976167     0.38000
H1196       H  0.83629303  0.32047413  0.75518716     0.33500
C1197       C  0.67675467  0.33313713  0.56742860    -0.20300
C1198       C  0.66025859  0.33112906  0.53978516     0.35900
C1199       C  0.64140852  0.34940098  0.53547086    -0.26300
C1200       C  0.63890132  0.36947586  0.55819530     0.02400
C1201       C  0.65567370  0.37181340  0.58521598     0.27200
C1202       C  0.67439196  0.35367207  0.58956816    -0.25400
N1203       N  0.66277264  0.31075132  0.51621647    -0.82800
H1204       H  0.62858432  0.34800497  0.51445062     0.13000
C1205       C  0.61917064  0.38859633  0.55322547     0.02300
N1206       N  0.65346218  0.39258301  0.60825204    -0.81300
H1207       H  0.68682023  0.35530702  0.61097777     0.17800
C1208       C  0.59901714  0.39010811  0.57606238    -0.26200
C1209       C  0.58097325  0.40933097  0.57372170     0.35800
C1210       C  0.58314887  0.42725353  0.54779356    -0.20200
C1211       C  0.60353081  0.42561634  0.52509521    -0.25500
C1212       C  0.62157500  0.40652839  0.52762712     0.27200
H1213       H  0.59763385  0.37642686  0.59606141     0.13000
N1214       N  0.56079822  0.41092327  0.59784163    -0.82700
H1215       H  0.60525363  0.43910698  0.50492020     0.17800
N1216       N  0.64244509  0.40534875  0.50450074    -0.81300
H1217       H  0.56190705  0.39625161  0.61513301     0.33500
H1218       H  0.56321541  0.42754665  0.61149968     0.37900
H1219       H  0.64137764  0.41986214  0.48696854     0.33400
H1220       H  0.65890279  0.40836600  0.51824242     0.30100
H1221       H  0.66709609  0.39143061  0.62704220     0.33400
H1222       H  0.65723769  0.40898985  0.59482592     0.30100
H1223       H  0.68021117  0.31268199  0.50419987     0.38000
H1224       H  0.64908122  0.31198492  0.49750980     0.33500
C1225       C  0.74878579  0.25333100  0.96495370    -0.20300
C1226       C  0.76864310  0.24210256  0.94623874     0.35900
C1227       C  0.76841493  0.24316508  0.91101745    -0.26300
C1228       C  0.74862793  0.25465923  0.89389492     0.02400
C1229       C  0.72847395  0.26529022  0.91229424     0.27200
C1230       C  0.72870074  0.26443365  0.94765674    -0.25400
N1231       N  0.78871764  0.22913603  0.96294651    -0.82800
H1232       H  0.78350515  0.23445474  0.89671611     0.13000
C1233       C  0.74873257  0.25411133  0.85662069     0.02300
N1234       N  0.70803970  0.27715741  0.89495658    -0.81300
H1235       H  0.71342231  0.27297613  0.96175200     0.17800
C1236       C  0.72899863  0.24201795  0.83995941    -0.26200
C1237       C  0.72864632  0.24029803  0.80487167     0.35800
C1238       C  0.74856335  0.25068251  0.78574523    -0.20200
C1239       C  0.76861174  0.26241207  0.80247953    -0.25500
C1240       C  0.76870090  0.26457213  0.83775825     0.27200
H1241       H  0.71382241  0.23362307  0.85433860     0.13000
N1242       N  0.70816064  0.22757632  0.78884846    -0.82700
H1243       H  0.78380157  0.27065296  0.78797865     0.17800
N1244       N  0.78865990  0.27777739  0.85449132    -0.81300
H1245       H  0.69145126  0.23664903  0.79573167     0.33500
H1246       H  0.70741823  0.20923213  0.79799653     0.37900
H1247       H  0.80179158  0.28445833  0.83702476     0.33400
H1248       H  0.78074788  0.29354372  0.86617345     0.30100
H1249       H  0.69465813  0.28393836  0.91208362     0.33400
H1250       H  0.71534976  0.29275527  0.88240078     0.30100
H1251       H  0.78087714  0.21349527  0.97483065     0.38000
H1252       H  0.80187703  0.22226133  0.94557403     0.33500
C1253       C  0.74257654  0.24874832  0.46454791    -0.20300
C1254       C  0.72495295  0.23488925  0.44541683     0.35900
C1255       C  0.72711079  0.23455669  0.41004366    -0.26300
C1256       C  0.74628420  0.24793705  0.39365118     0.02400
C1257       C  0.76353596  0.26203759  0.41259555     0.27200
C1258       C  0.76152873  0.26229844  0.44776408    -0.25400
N1259       N  0.70567934  0.22041595  0.46182537    -0.82800
H1260       H  0.71383439  0.22386110  0.39516119     0.13000
C1261       C  0.74796153  0.24775700  0.35650051     0.02300
N1262       N  0.78305989  0.27601485  0.39592835    -0.81300
H1263       H  0.77500761  0.27305962  0.46223725     0.17800
C1264       C  0.73806605  0.26810057  0.33879610    -0.26200
C1265       C  0.74013146  0.26931562  0.30365160     0.35800
C1266       C  0.75247993  0.24983733  0.28595260    -0.20200
C1267       C  0.76269396  0.22959110  0.30367978    -0.25500
C1268       C  0.76055242  0.22837795  0.33896295     0.27200
H1269       H  0.72876593  0.28309377  0.35252949     0.13000
N1270       N  0.72973586  0.29024453  0.28573540    -0.82700
H1271       H  0.77181326  0.21450137  0.28992416     0.17800
N1272       N  0.77096120  0.20757750  0.35706978    -0.81300
H1273       H  0.72118128  0.30289799  0.30238800     0.33500
H1274       H  0.74467444  0.29980716  0.27434572     0.37900
H1275       H  0.77936740  0.19480287  0.34044707     0.33400
H1276       H  0.78533946  0.21453763  0.37234124     0.22100
H1277       H  0.79408369  0.28564470  0.41344778     0.33400
H1278       H  0.79495268  0.26314251  0.38389817     0.30100
H1279       H  0.69290953  0.23301138  0.47269089     0.38000
H1280       H  0.69546648  0.21002170  0.44419989     0.33500
C1281       C  0.82877853  0.33020966  0.17897973    -0.20300
C1282       C  0.83985229  0.34272087  0.15134212     0.35900
C1283       C  0.85913190  0.36020075  0.15683688    -0.26300
C1284       C  0.86758737  0.36554588  0.18929653     0.02400
C1285       C  0.85662903  0.35316655  0.21707772     0.27200
C1286       C  0.83750855  0.33521938  0.21157644    -0.25400
N1287       N  0.83146168  0.33755599  0.11769270    -0.82800
H1288       H  0.86749064  0.36996796  0.13569894     0.13000
C1289       C  0.88680871  0.38543401  0.19332884     0.02300
N1290       N  0.86421499  0.35959552  0.25066248    -0.81300
H1291       H  0.82885716  0.32574335  0.23272641     0.17800
C1292       C  0.87894901  0.41049277  0.19355375    -0.26200
C1293       C  0.89645813  0.43021361  0.19495308     0.35800
C1294       C  0.92248399  0.42470766  0.19701240    -0.20200
C1295       C  0.93033086  0.39951679  0.19534876    -0.25500
C1296       C  0.91272266  0.37982065  0.19338379     0.27200
H1297       H  0.85901234  0.41464342  0.19219378     0.13000
N1298       N  0.88788507  0.45579430  0.19407442    -0.82700
H1299       H  0.95020354  0.39510016  0.19666925     0.17800
N1300       N  0.92102250  0.35420582  0.19097376    -0.81300
H1301       H  0.86825729  0.45656218  0.19262306     0.33500
H1302       H  0.89484318  0.46380648  0.17194899     0.37900
H1303       H  0.94068029  0.35331475  0.19055648     0.33400
H1304       H  0.91517688  0.34495110  0.21275287     0.30100
H1305       H  0.85377185  0.34938201  0.26825643     0.33400
H1306       H  0.88296596  0.35415354  0.25349994     0.30100
H1307       H  0.83620679  0.31897006  0.11205718     0.38000
H1308       H  0.84109629  0.34873592  0.10034105     0.33500
C1309       C  0.58784908  0.43382271  0.04982743    -0.20300
C1310       C  0.61250682  0.43471733  0.03565231     0.35900
C1311       C  0.62937579  0.41490623  0.04143164    -0.26300
C1312       C  0.62263550  0.39453068  0.06152900     0.02400
C1313       C  0.59859517  0.39376984  0.07648089     0.27200
C1314       C  0.58144852  0.41333202  0.07045244    -0.25400
N1315       N  0.62046880  0.45548093  0.01521583    -0.82800
H1316       H  0.64810570  0.41546383  0.03052627     0.13000
C1317       C  0.64144495  0.37459835  0.06769333     0.02300
N1318       N  0.59166599  0.37300615  0.09752474    -0.81300
H1319       H  0.56284200  0.41228614  0.08159703     0.17800
C1320       C  0.65312085  0.37355327  0.09908426    -0.26200
C1321       C  0.67167332  0.35552198  0.10579329     0.35800
C1322       C  0.67893283  0.33830931  0.08029275    -0.20200
C1323       C  0.66678960  0.33909136  0.04902208    -0.25500
C1324       C  0.64818428  0.35720391  0.04240977     0.27200
H1325       H  0.64768495  0.38690869  0.11842565     0.13000
N1326       N  0.68270474  0.35427513  0.13867459    -0.82700
H1327       H  0.67205346  0.32574036  0.02960258     0.17800
N1328       N  0.63618015  0.35813735  0.01014285    -0.81300
H1329       H  0.67561462  0.36849680  0.15424246     0.33500
H1330       H  0.67712773  0.33728259  0.14943256     0.37900
H1331       H  0.64340004  0.34419805  0.99422782     0.33400
H1332       H  0.61712317  0.35401424  0.01377702     0.30100
H1333       H  0.57336242  0.37530192  0.10681421     0.33400
H1334       H  0.59149719  0.35687944  0.08246539     0.30100
H1335       H  0.62182871  0.47118484  0.03094998     0.38000
H1336       H  0.63852844  0.45243492  0.00545335     0.33500
C1337       C  0.82353655  0.66405816  0.83562460    -0.20300
C1338       C  0.83875814  0.66315211  0.80648554     0.35900
C1339       C  0.85740132  0.64458330  0.80373529    -0.26300
C1340       C  0.86096994  0.62700328  0.82942918     0.02400
C1341       C  0.84619943  0.62821474  0.85881445     0.27200
C1342       C  0.82762714  0.64674814  0.86162691    -0.25400
N1343       N  0.83494140  0.68068587  0.77963399    -0.82800
H1344       H  0.86893814  0.64346773  0.78122853     0.13000
C1345       C  0.87913320  0.60642027  0.82423104     0.02300
N1346       N  0.84992322  0.61043179  0.88541934    -0.81300
H1347       H  0.81634087  0.64774482  0.88436938     0.17800
C1348       C  0.90015923  0.60440233  0.84519204    -0.26200
C1349       C  0.91793481  0.58518599  0.84029503     0.35800
C1350       C  0.91453224  0.56782924  0.81372326    -0.20200
C1351       C  0.89297383  0.56962836  0.79347363    -0.25500
C1352       C  0.87523130  0.58866730  0.79854231     0.27200
H1353       H  0.90276878  0.61800473  0.86520167     0.13000
N1354       N  0.93932354  0.58329884  0.86210084    -0.82700
H1355       H  0.89020420  0.55652711  0.77292301     0.17800
N1356       N  0.85329692  0.59019317  0.77759680    -0.81300
H1357       H  0.93761741  0.56647592  0.87531691     0.33500
H1358       H  0.93913880  0.59770630  0.88002390     0.37900
H1359       H  0.85336722  0.57585296  0.75957569     0.33400
H1360       H  0.83753577  0.58718523  0.79290487     0.30100
H1361       H  0.83764065  0.61408243  0.90547320     0.33400
H1362       H  0.84521560  0.59267805  0.87610628     0.30100
H1363       H  0.81711193  0.67726203  0.76960009     0.38000
H1364       H  0.84791816  0.67757552  0.76020947     0.33500
C1365       C  0.67636485  0.67113205  0.93901566    -0.20300
C1366       C  0.68149128  0.64713091  0.95206264     0.35900
C1367       C  0.66201733  0.62930350  0.95394647    -0.26300
C1368       C  0.63778435  0.63472155  0.94189588     0.02400
C1369       C  0.63261335  0.65901161  0.92960680     0.27200
C1370       C  0.65182921  0.67706742  0.92897859    -0.25400
N1371       N  0.70648912  0.64089252  0.96285956    -0.82800
H1372       H  0.66587091  0.61092673  0.96424382     0.13000
C1373       C  0.61811717  0.61477881  0.94161238     0.02300
N1374       N  0.60816135  0.66496229  0.91650680    -0.81300
H1375       H  0.64802865  0.69539735  0.91845957     0.17800
C1376       C  0.59434999  0.61991825  0.95557269    -0.26200
C1377       C  0.57510682  0.60188323  0.95540112     0.35800
C1378       C  0.57985951  0.57788154  0.94156102    -0.20200
C1379       C  0.60364111  0.57260508  0.92778617    -0.25500
C1380       C  0.62271802  0.59090227  0.92719687     0.27200
H1381       H  0.59094678  0.63797764  0.96734788     0.13000
N1382       N  0.55115424  0.60753369  0.97064790    -0.82700
H1383       H  0.60738075  0.55403438  0.91774440     0.17800
N1384       N  0.64672725  0.58529799  0.91211545    -0.81300
H1385       H  0.55046714  0.62627131  0.97848995     0.33500
H1386       H  0.54959757  0.59675078  0.99242559     0.37900
H1387       H  0.64710995  0.56687113  0.90300707     0.33400
H1388       H  0.64894119  0.59701633  0.89130246     0.30100
H1389       H  0.60746293  0.68360769  0.90851656     0.33400
H1390       H  0.60530645  0.65378599  0.89519606     0.30100
H1391       H  0.71076321  0.65242895  0.98337699     0.38000
H1392       H  0.70717910  0.62240389  0.97147952     0.33500
C1393       C  0.75286127  0.75229032  0.54031314    -0.20300
C1394       C  0.77309285  0.76351709  0.55797580     0.35900
C1395       C  0.77344461  0.76268306  0.59322024    -0.26300
C1396       C  0.75391798  0.75130342  0.61125662     0.02400
C1397       C  0.73341270  0.74066706  0.59389518     0.27200
C1398       C  0.73302408  0.74137303  0.55856301    -0.25400
N1399       N  0.79301642  0.77609287  0.54015997    -0.82800
H1400       H  0.78885407  0.77128282  0.60680931     0.13000
C1401       C  0.75479539  0.75148444  0.64843884     0.02300
N1402       N  0.71326855  0.72892136  0.61225546    -0.81300
H1403       H  0.71750298  0.73278023  0.54521747     0.17800
C1404       C  0.73623052  0.76466342  0.66623032    -0.26200
C1405       C  0.73611488  0.76518041  0.70138615     0.35800
C1406       C  0.75475720  0.75198349  0.71936010    -0.20200
C1407       C  0.77397902  0.73960965  0.70148574    -0.25500
C1408       C  0.77409872  0.73910958  0.66610687     0.27200
H1409       H  0.72177012  0.77473275  0.65269196     0.13000
N1410       N  0.71725852  0.77955622  0.71869947    -0.82700
H1411       H  0.78843038  0.72960865  0.71510597     0.17800
N1412       N  0.79339955  0.72570848  0.64804744    -0.81300
H1413       H  0.71866799  0.79818212  0.71076660     0.33500
H1414       H  0.69959817  0.77275596  0.71160965     0.37900
H1415       H  0.80622812  0.71773215  0.66473852     0.33400
H1416       H  0.78476642  0.71083808  0.63533327     0.30100
H1417       H  0.69960415  0.72204442  0.59578811     0.33400
H1418       H  0.72076843  0.71338362  0.62464431     0.30100
H1419       H  0.78513266  0.79160432  0.52813750     0.38000
H1420       H  0.80643612  0.78312889  0.55687090     0.33500
C1421       C  0.74847785  0.75608512  0.04010886    -0.20300
C1422       C  0.76911548  0.76648796  0.05777677     0.35900
C1423       C  0.76970674  0.76557479  0.09292515    -0.26300
C1424       C  0.74990221  0.75489256  0.11115775     0.02400
C1425       C  0.72884217  0.74519870  0.09391789     0.27200
C1426       C  0.72829817  0.74593202  0.05851508    -0.25400
N1427       N  0.78937691  0.77849929  0.04019830    -0.82800
H1428       H  0.78564382  0.77354538  0.10611366     0.13000
C1429       C  0.75116091  0.75465418  0.14838121     0.02300
N1430       N  0.70829258  0.73436036  0.11247513    -0.81300
H1431       H  0.71241233  0.73793440  0.04528274     0.17800
C1432       C  0.73326618  0.76828913  0.16683456    -0.26200
C1433       C  0.73336282  0.76828213  0.20212139     0.35800
C1434       C  0.75152752  0.75387248  0.21936982    -0.20200
C1435       C  0.77005111  0.74098119  0.20081022    -0.25500
C1436       C  0.77007403  0.74125441  0.16543899     0.27200
H1437       H  0.71924457  0.77912220  0.15354608     0.13000
N1438       N  0.71528769  0.78312621  0.22045403    -0.82700
H1439       H  0.78414510  0.73012118  0.21391471     0.17800
N1440       N  0.78898113  0.72773948  0.14677445    -0.81300
H1441       H  0.70330193  0.79254573  0.20399728     0.33500
H1442       H  0.72521159  0.79694099  0.23361200     0.37900
H1443       H  0.80158399  0.71899386  0.16307723     0.33400
H1444       H  0.77994364  0.71344993  0.13339358     0.30100
H1445       H  0.69422497  0.72815593  0.09614520     0.33400
H1446       H  0.71513848  0.71847937  0.12476030     0.30100
H1447       H  0.80612128  0.76934944  0.04637869     0.38000
H1448       H  0.79059370  0.79704445  0.04871131     0.33500
C1449       C  0.91684994  0.57019097  0.30367351    -0.20300
C1450       C  0.91926650  0.58843887  0.32941986     0.35900
C1451       C  0.90047726  0.60685205  0.33344822    -0.26300
C1452       C  0.87924334  0.60721222  0.31267345     0.02400
C1453       C  0.87630728  0.58863951  0.28780749     0.27200
C1454       C  0.89514445  0.57044662  0.28341722    -0.25400
N1455       N  0.94055786  0.58814465  0.35155182    -0.82800
H1456       H  0.90231330  0.62099450  0.35293828     0.13000
C1457       C  0.85970727  0.62665849  0.31791672     0.02300
N1458       N  0.85416829  0.58835945  0.26715442    -0.81300
H1459       H  0.89294680  0.55660746  0.26362242     0.17800
C1460       C  0.85638876  0.64548457  0.29378168    -0.26200
C1461       C  0.83771590  0.66402764  0.29788401     0.35800
C1462       C  0.82195540  0.66346182  0.32661736    -0.20200
C1463       C  0.82545161  0.64448519  0.35064001    -0.25500
C1464       C  0.84414402  0.62613666  0.34659335     0.27200
H1465       H  0.86846060  0.64568333  0.27174103     0.13000
N1466       N  0.83465411  0.68322468  0.27297233    -0.82700
H1467       H  0.81379163  0.64416959  0.37306263     0.17800
N1468       N  0.84741994  0.60693385  0.37146852    -0.81300
H1469       H  0.81694950  0.68076885  0.26208933     0.33500
H1470       H  0.84790708  0.68106582  0.25365202     0.37900
H1471       H  0.83465202  0.60936948  0.39130568     0.33400
H1472       H  0.84307444  0.58972751  0.36018628     0.30100
H1473       H  0.85491219  0.57350958  0.24991300     0.33400
H1474       H  0.83871131  0.58492155  0.28284994     0.30100
H1475       H  0.93956839  0.57162779  0.36558411     0.38000
H1476       H  0.93956027  0.60299222  0.36877460     0.33500
C1477       C  0.67750833  0.66909172  0.43923736    -0.20300
C1478       C  0.68297879  0.64366790  0.44588930     0.35900
C1479       C  0.66319975  0.62626320  0.44814820    -0.26300
C1480       C  0.63809441  0.63368820  0.44385613     0.02400
C1481       C  0.63251926  0.65923061  0.43846758     0.27200
C1482       C  0.65227862  0.67670787  0.43656394    -0.25400
N1483       N  0.70858142  0.63561571  0.45017683    -0.82800
H1484       H  0.66735657  0.60673421  0.45315242     0.13000
C1485       C  0.61790618  0.61446499  0.44563093     0.02300
N1486       N  0.60690363  0.66717513  0.43392825    -0.81300
H1487       H  0.64800785  0.69615171  0.43116106     0.17800
C1488       C  0.59877020  0.61707375  0.46981463    -0.26200
C1489       C  0.58029551  0.59848995  0.47380002     0.35800
C1490       C  0.58091595  0.57702619  0.45299997    -0.20200
C1491       C  0.59975415  0.57445530  0.42851343    -0.25500
C1492       C  0.61820558  0.59312747  0.42438904     0.27200
H1493       H  0.59871660  0.63331259  0.48630274     0.13000
N1494       N  0.56125779  0.60098416  0.49943260    -0.82700
H1495       H  0.60011163  0.55780772  0.41277714     0.17800
N1496       N  0.63729704  0.59050950  0.39887508    -0.81300
H1497       H  0.56323707  0.61802995  0.51226040     0.33500
H1498       H  0.56428041  0.58685689  0.51711278     0.37900
H1499       H  0.63488863  0.57375510  0.38550214     0.33400
H1500       H  0.63485167  0.60507841  0.38168381     0.30100
H1501       H  0.60602255  0.68656334  0.43022705     0.33400
H1502       H  0.60027828  0.65876720  0.41188367     0.30100
H1503       H  0.71553995  0.64453526  0.47167093     0.38000
H1504       H  0.70935478  0.61633252  0.45477322     0.33500
C1505       C  0.68079257  0.83313051  0.43284785    -0.20300
C1506       C  0.68014013  0.85627426  0.41531423     0.35900
C1507       C  0.66192438  0.87426439  0.42383494    -0.26300
C1508       C  0.64404859  0.86977903  0.44904765     0.02400
C1509       C  0.64463333  0.84690349  0.46673696     0.27200
C1510       C  0.66295399  0.82880927  0.45843374    -0.25400
N1511       N  0.69732426  0.86123178  0.38808497    -0.82800
H1512       H  0.66110048  0.89165326  0.40986530     0.13000
C1513       C  0.62412330  0.88882324  0.45521225     0.02300
N1514       N  0.62662110  0.84217573  0.49304619    -0.81300
H1515       H  0.66331245  0.81128378  0.47210862     0.17800
C1516       C  0.59880423  0.88182835  0.45221389    -0.26200
C1517       C  0.57933959  0.89942336  0.45642797     0.35800
C1518       C  0.58537697  0.92492981  0.46259742    -0.20200
C1519       C  0.61083821  0.93179420  0.46574626    -0.25500
C1520       C  0.63020794  0.91401923  0.46243177     0.27200
H1521       H  0.59420806  0.86247959  0.44645591     0.13000
N1522       N  0.55357389  0.89128350  0.45497502    -0.82700
H1523       H  0.61574015  0.95117593  0.47076329     0.17800
N1524       N  0.65604900  0.92142885  0.46642349    -0.81300
H1525       H  0.55249841  0.87208120  0.44968355     0.33500
H1526       H  0.54574920  0.89378278  0.47893398     0.37900
H1527       H  0.65734700  0.94064591  0.47151252     0.33400
H1528       H  0.66304955  0.91216150  0.48751551     0.30100
H1529       H  0.62949155  0.82444117  0.50347410     0.33400
H1530       H  0.62980763  0.85526455  0.51221070     0.30100
H1531       H  0.69269756  0.84902019  0.36842500     0.38000
H1532       H  0.69487632  0.87939471  0.37883543     0.33500
C1533       C  0.57167102  0.07889327  0.55416651    -0.20300
C1534       C  0.59546948  0.07378364  0.56819438     0.35900
C1535       C  0.61212062  0.09362043  0.57454420    -0.26300
C1536       C  0.60549021  0.11851132  0.56755997     0.02400
C1537       C  0.58149034  0.12377539  0.55429902     0.27200
C1538       C  0.56474155  0.10386844  0.54784866    -0.25400
N1539       N  0.60264270  0.04845660  0.57595722    -0.82800
H1540       H  0.63061074  0.08962285  0.58457380     0.13000
C1541       C  0.62450053  0.13844951  0.57340325     0.02300
N1542       N  0.57434796  0.14921154  0.54722455    -0.81300
H1543       H  0.54649859  0.10777604  0.53699646     0.17800
C1544       C  0.63287983  0.15313864  0.54633854    -0.26200
C1545       C  0.65309981  0.16996083  0.55009611     0.35800
C1546       C  0.66516390  0.17194313  0.58155260    -0.20200
C1547       C  0.65639024  0.15762714  0.60870819    -0.25500
C1548       C  0.63597778  0.14118924  0.60509914     0.27200
H1549       H  0.62419609  0.15080450  0.52193564     0.13000
N1550       N  0.66188150  0.18439951  0.52192630    -0.82700
H1551       H  0.66530503  0.15955353  0.63303504     0.17800
N1552       N  0.62684839  0.12716958  0.63345543    -0.81300
H1553       H  0.65091329  0.18078636  0.50069696     0.33500
H1554       H  0.68012036  0.17835278  0.51612100     0.37900
H1555       H  0.63742666  0.13121946  0.65490093     0.33400
H1556       H  0.60848107  0.13319548  0.63849767     0.30100
H1557       H  0.55617096  0.14983891  0.53731341     0.33400
H1558       H  0.57374877  0.15896169  0.57007951     0.30100
H1559       H  0.59048729  0.04201948  0.59479033     0.38000
H1560       H  0.62079258  0.04794023  0.58597085     0.33500
C1561       C  0.49795256  0.99966782  0.83737395    -0.20300
C1562       C  0.50820641  0.02005517  0.81911588     0.35900
C1563       C  0.50671872  0.02041688  0.78401022    -0.26300
C1564       C  0.49552898  0.00069806  0.76631500     0.02400
C1565       C  0.48572517  0.97997431  0.78409640     0.27200
C1566       C  0.48696169  0.97969045  0.81950964    -0.25400
N1567       N  0.52079012  0.04023919  0.83598451    -0.82800
H1568       H  0.51482305  0.03605263  0.77038174     0.13000
C1569       C  0.49559124  0.00157247  0.72905764     0.02300
N1570       N  0.47456858  0.95937852  0.76610200    -0.81300
H1571       H  0.47900121  0.96402091  0.83318287     0.17800
C1572       C  0.50995182  0.98394743  0.71128447    -0.26200
C1573       C  0.51152773  0.98456731  0.67609205     0.35800
C1574       C  0.49778240  0.00287484  0.65805388    -0.20200
C1575       C  0.48404399  0.02108167  0.67600936    -0.25500
C1576       C  0.48280300  0.02058648  0.71140340     0.27200
H1577       H  0.52037092  0.96989566  0.72506819     0.13000
N1578       N  0.52737800  0.96686438  0.65866081    -0.82700
H1579       H  0.47366294  0.03524766  0.66240549     0.17800
N1580       N  0.46838203  0.03907618  0.72952017    -0.81300
H1581       H  0.53601646  0.95465108  0.67555796     0.33500
H1582       H  0.54181878  0.97699665  0.64701436     0.37900
H1583       H  0.46018985  0.05179817  0.71290263     0.33400
H1584       H  0.45359948  0.02976683  0.74162578     0.30100
H1585       H  0.46831994  0.94560418  0.78281553     0.33400
H1586       H  0.45862521  0.96618970  0.75384350     0.30100
H1587       H  0.53925529  0.04116227  0.82685330     0.38000
H1588       H  0.51170703  0.05698219  0.82978479     0.33500
C1589       C  0.50744936  0.00118633  0.15888174    -0.20300
C1590       C  0.49941596  0.02134655  0.17954915     0.35900
C1591       C  0.50171858  0.01939453  0.21469576    -0.26300
C1592       C  0.51147477  0.99767042  0.22966365     0.02400
C1593       C  0.51967379  0.97767743  0.20918694     0.27200
C1594       C  0.51756322  0.97962310  0.17418972    -0.25400
N1595       N  0.48838472  0.04339649  0.16507151    -0.82800
H1596       H  0.49517818  0.03461555  0.23063762     0.13000
C1597       C  0.51196875  0.99576144  0.26686634     0.02300
N1598       N  0.53017917  0.95549005  0.22403606    -0.81300
H1599       H  0.52403973  0.96408336  0.15878386     0.17800
C1600       C  0.49892631  0.97615862  0.28275220    -0.26200
C1601       C  0.49763942  0.97459319  0.31801331     0.35800
C1602       C  0.50897818  0.99359683  0.33769216    -0.20200
C1603       C  0.52252633  0.01280788  0.32164551    -0.25500
C1604       C  0.52456488  0.01379559  0.28652140     0.27200
H1605       H  0.48935253  0.96225524  0.26751747     0.13000
N1606       N  0.48398295  0.95445261  0.33364381    -0.82700
H1607       H  0.53171551  0.02710435  0.33666074     0.17800
N1608       N  0.53942451  0.03298481  0.27068918    -0.81300
H1609       H  0.47534453  0.94318525  0.31546793     0.33500
H1610       H  0.49715540  0.94296920  0.34546568     0.37900
H1611       H  0.54741779  0.04483557  0.28873164     0.33400
H1612       H  0.55438030  0.02410846  0.25826356     0.30100
H1613       H  0.53500369  0.94234432  0.20550768     0.33400
H1614       H  0.54691453  0.96067040  0.23590931     0.30100
H1615       H  0.47131422  0.03806371  0.15419688     0.38000
H1616       H  0.48397621  0.05656280  0.18375807     0.33500
C1617       C  0.58155495  0.92611964  0.94845714    -0.20300
C1618       C  0.57964172  0.90937565  0.92087256     0.35900
C1619       C  0.59814087  0.89075214  0.91614794    -0.26300
C1620       C  0.61857811  0.88867076  0.93814240     0.02400
C1621       C  0.62051412  0.90525945  0.96566558     0.27200
C1622       C  0.60208067  0.92379368  0.97047378    -0.25400
N1623       N  0.55932568  0.91161798  0.89736533    -0.82800
H1624       H  0.59691960  0.87808316  0.89483574     0.13000
C1625       C  0.63823438  0.86943467  0.93185320     0.02300
N1626       N  0.64115981  0.90309046  0.98872950    -0.81300
H1627       H  0.60361884  0.93630377  0.99191055     0.17800
C1628       C  0.66312527  0.87721654  0.92651198    -0.26200
C1629       C  0.68260417  0.85973594  0.92193199     0.35800
C1630       C  0.67698698  0.83376424  0.92246250    -0.20200
C1631       C  0.65195711  0.82604831  0.92753178    -0.25500
C1632       C  0.63250839  0.84362027  0.93206282     0.27200
H1633       H  0.66736174  0.89710394  0.92615313     0.13000
N1634       N  0.70802346  0.86833320  0.91707266    -0.82700
H1635       H  0.64745408  0.80622268  0.92745239     0.17800
N1636       N  0.60699452  0.83537861  0.93693089    -0.81300
H1637       H  0.70875389  0.88793101  0.91660133     0.33500
H1638       H  0.71845608  0.86268868  0.93793221     0.37900
H1639       H  0.60592046  0.81580159  0.93598885     0.33400
H1640       H  0.60143927  0.84075214  0.96116386     0.30100
H1641       H  0.63995692  0.91682216  0.00752079     0.33400
H1642       H  0.63953807  0.88574465  0.00072061     0.30100
H1643       H  0.56140165  0.92881208  0.88510723     0.38000
H1644       H  0.56057584  0.89770879  0.87881161     0.33500
C1645       C  0.58025473  0.07881984  0.04649975    -0.20300
C1646       C  0.60661230  0.07506285  0.04346074     0.35900
C1647       C  0.62313033  0.09513439  0.04960494    -0.26300
C1648       C  0.61425174  0.11875685  0.05975042     0.02400
C1649       C  0.58813488  0.12253718  0.06352759     0.27200
C1650       C  0.57142085  0.10262980  0.05667320    -0.25400
N1651       N  0.61668407  0.05086727  0.03456925    -0.82800
H1652       H  0.64323213  0.09227420  0.04685103     0.13000
C1653       C  0.63286670  0.13888187  0.06735897     0.02300
N1654       N  0.57872333  0.14647506  0.07463182    -0.81300
H1655       H  0.55136560  0.10582944  0.05915688     0.17800
C1656       C  0.63274062  0.16138357  0.04910262    -0.26200
C1657       C  0.65153047  0.17978478  0.05391215     0.35800
C1658       C  0.67078823  0.17562218  0.07777239    -0.20200
C1659       C  0.67028472  0.15325800  0.09653193    -0.25500
C1660       C  0.65159609  0.13502957  0.09171533     0.27200
H1661       H  0.61835072  0.16424369  0.03030261     0.13000
N1662       N  0.65132626  0.20227225  0.03412489    -0.82700
H1663       H  0.68452991  0.14990434  0.11536968     0.17800
N1664       N  0.65154313  0.11251006  0.11150917    -0.81300
H1665       H  0.63558289  0.20265657  0.01847263     0.33500
H1666       H  0.66710855  0.20175762  0.01832548     0.37900
H1667       H  0.66668823  0.11239900  0.12818591     0.33400
H1668       H  0.63516398  0.11262353  0.12619204     0.30100
H1669       H  0.55906983  0.14623425  0.07604387     0.33400
H1670       H  0.58520791  0.14947797  0.09909711     0.30100
H1671       H  0.61257469  0.03864866  0.05434633     0.38000
H1672       H  0.63630347  0.05153949  0.03258454     0.33500
C1673       C  0.16962844  0.66949356  0.83261164    -0.20300
C1674       C  0.15115928  0.67235980  0.80734330     0.35900
C1675       C  0.13268315  0.65371692  0.80321428    -0.26300
C1676       C  0.13216425  0.63240853  0.82376353     0.02400
C1677       C  0.15007819  0.62981639  0.84945517     0.27200
C1678       C  0.16866290  0.64820884  0.85342896    -0.25400
N1679       N  0.15134851  0.69382839  0.78560826    -0.82800
H1680       H  0.11892073  0.65551135  0.78335656     0.13000
C1681       C  0.11336710  0.61243081  0.81742411     0.02300
N1682       N  0.14921045  0.60853208  0.87153921    -0.81300
H1683       H  0.18233047  0.64594555  0.87330044     0.17800
C1684       C  0.12180909  0.58793679  0.81118461    -0.26200
C1685       C  0.10481313  0.56840300  0.80517636     0.35800
C1686       C  0.07870480  0.57343739  0.80440010    -0.20200
C1687       C  0.07026263  0.59799656  0.81100405    -0.25500
C1688       C  0.08733074  0.61750253  0.81777388     0.27200
H1689       H  0.14180895  0.58391551  0.81101690     0.13000
N1690       N  0.11422766  0.54343379  0.80047589    -0.82700
H1691       H  0.05029931  0.60209655  0.81054463     0.17800
N1692       N  0.07836669  0.64237260  0.82520506    -0.81300
H1693       H  0.12440612  0.53850416  0.82188636     0.33500
H1694       H  0.12663835  0.54351486  0.77999045     0.37900
H1695       H  0.05871348  0.64298824  0.82432163     0.33400
H1696       H  0.08341519  0.64659482  0.84996582     0.30100
H1697       H  0.16375734  0.60938286  0.88910885     0.33400
H1698       H  0.13234664  0.60952234  0.88514349     0.30100
H1699       H  0.16754593  0.69269947  0.77064230     0.38000
H1700       H  0.13603679  0.69335562  0.76920826     0.33500
C1701       C  0.32479644  0.67190132  0.92338505    -0.20300
C1702       C  0.33922322  0.67271769  0.95312916     0.35900
C1703       C  0.35870441  0.65514423  0.95767969    -0.26300
C1704       C  0.36392604  0.63675110  0.93325361     0.02400
C1705       C  0.34981787  0.63620819  0.90334521     0.27200
C1706       C  0.33032371  0.65363335  0.89884034    -0.25400
N1707       N  0.33363722  0.69086738  0.97894710    -0.82800
H1708       H  0.36941879  0.65530693  0.98078483     0.13000
C1709       C  0.38303497  0.61710411  0.94017965     0.02300
N1710       N  0.35539369  0.61793367  0.87767172    -0.81300
H1711       H  0.31956771  0.65314761  0.87576699     0.17800
C1712       C  0.37522990  0.59202838  0.94213048    -0.26200
C1713       C  0.39237507  0.57269748  0.94911755     0.35800
C1714       C  0.41803591  0.57854728  0.95423840    -0.20200
C1715       C  0.42588374  0.60371187  0.95195861    -0.25500
C1716       C  0.40860104  0.62307017  0.94517958     0.27200
H1717       H  0.35554749  0.58755749  0.93833391     0.13000
N1718       N  0.38382095  0.54713262  0.95060817    -0.82700
H1719       H  0.44551102  0.60832661  0.95592739     0.17800
N1720       N  0.41686126  0.64871272  0.94333357    -0.81300
H1721       H  0.39245107  0.53732950  0.93085609     0.33500
H1722       H  0.36443058  0.54609870  0.94647335     0.37900
H1723       H  0.43619749  0.64996035  0.94779516     0.33400
H1724       H  0.41399756  0.65484425  0.91871572     0.30100
H1725       H  0.34305378  0.61978490  0.85743891     0.33400
H1726       H  0.37342795  0.62180246  0.86841413     0.30100
H1727       H  0.31569356  0.68683426  0.98839713     0.38000
H1728       H  0.34611014  0.68905136  0.99903692     0.33500
C1729       C  0.32092977  0.83388960  0.92469332    -0.20300
C1730       C  0.33625587  0.83297400  0.95359534     0.35900
C1731       C  0.35565323  0.85074565  0.95761558    -0.26300
C1732       C  0.35992276  0.86944295  0.93348909     0.02400
C1733       C  0.34443147  0.87062251  0.90494045     0.27200
C1734       C  0.32519525  0.85282160  0.90076916    -0.25400
N1735       N  0.33187519  0.81430859  0.97893066    -0.82800
H1736       H  0.36742270  0.85017177  0.97976575     0.13000
C1737       C  0.37980775  0.88854860  0.93921537     0.02300
N1738       N  0.34818919  0.89005109  0.88045849    -0.81300
H1739       H  0.31363225  0.85359699  0.87843552     0.17800
C1740       C  0.40084258  0.88963734  0.91774849    -0.26200
C1741       C  0.41954943  0.90817145  0.92194226     0.35800
C1742       C  0.41717225  0.92589933  0.94839178    -0.20200
C1743       C  0.39601749  0.92448461  0.96984700    -0.25500
C1744       C  0.37731535  0.90621184  0.96537399     0.27200
H1745       H  0.40252734  0.87606122  0.89750263     0.13000
N1746       N  0.44064414  0.90915141  0.89922890    -0.82700
H1747       H  0.39399305  0.93769056  0.99046099     0.17800
N1748       N  0.35559732  0.90567161  0.98709001    -0.81300
H1749       H  0.43964935  0.89463561  0.88151744     0.33500
H1750       H  0.43936304  0.92592561  0.88581734     0.37900
H1751       H  0.35667466  0.91982970  0.00530456     0.33400
H1752       H  0.33984396  0.90968844  0.97241245     0.30100
H1753       H  0.33533532  0.88820166  0.86078569     0.33400
H1754       H  0.34428902  0.90721512  0.89220252     0.30100
H1755       H  0.31408264  0.81768448  0.98935750     0.38000
H1756       H  0.34481672  0.81619535  0.99849177     0.33500
C1757       C  0.25514958  0.74218568  0.53435591    -0.20300
C1758       C  0.27625872  0.74881505  0.55406402     0.35900
C1759       C  0.27432873  0.74812177  0.58945973    -0.26300
C1760       C  0.25205402  0.74039602  0.60568693     0.02400
C1761       C  0.23139707  0.73283325  0.58602546     0.27200
C1762       C  0.23310040  0.73399115  0.55087125    -0.25400
N1763       N  0.29925859  0.75697913  0.53839007    -0.82800
H1764       H  0.29020320  0.75402321  0.60453359     0.13000
C1765       C  0.25033641  0.74079266  0.64319844     0.02300
N1766       N  0.20869891  0.72395684  0.60184419    -0.81300
H1767       H  0.21687896  0.72836744  0.53627357     0.17800
C1768       C  0.23032227  0.75353655  0.65906981    -0.26200
C1769       C  0.22808651  0.75457867  0.69438149     0.35800
C1770       C  0.24649583  0.74283438  0.71445713    -0.20200
C1771       C  0.26650004  0.73009521  0.69841380    -0.25500
C1772       C  0.26845200  0.72869526  0.66319610     0.27200
H1773       H  0.21656101  0.76312554  0.64376871     0.13000
N1774       N  0.20754022  0.76801118  0.70972620    -0.82700
H1775       H  0.28066487  0.72088002  0.71347223     0.17800
N1776       N  0.28863284  0.71479669  0.64768843    -0.81300
H1777       H  0.19543002  0.77506580  0.69141258     0.33500
H1778       H  0.21508173  0.78354608  0.72226210     0.37900
H1779       H  0.30048867  0.70718588  0.66589590     0.33400
H1780       H  0.28065097  0.69965892  0.63477671     0.30100
H1781       H  0.19511701  0.71944474  0.58387430     0.33400
H1782       H  0.21305490  0.70731117  0.61433893     0.30100
H1783       H  0.30722158  0.74139149  0.52635294     0.38000
H1784       H  0.31226721  0.76267481  0.55652236     0.33500
C1785       C  0.24840171  0.75908071  0.03617369    -0.20300
C1786       C  0.26788882  0.74881477  0.05602746     0.35900
C1787       C  0.26583899  0.74975372  0.09130566    -0.26300
C1788       C  0.24514542  0.76115703  0.10706493     0.02400
C1789       C  0.22629537  0.77237400  0.08757844     0.27200
C1790       C  0.22801458  0.77109170  0.05237776    -0.25400
N1791       N  0.28925247  0.73680525  0.04056283    -0.82800
H1792       H  0.28042611  0.74152280  0.10668359     0.13000
C1793       C  0.24361416  0.76138578  0.14413417     0.02300
N1794       N  0.20565997  0.78523278  0.10363646    -0.81300
H1795       H  0.21323181  0.77947382  0.03750016     0.17800
C1796       C  0.25512410  0.78096293  0.16190661    -0.26200
C1797       C  0.25515512  0.78119745  0.19720763     0.35800
C1798       C  0.24323898  0.76156002  0.21482842    -0.20200
C1799       C  0.23104845  0.74236925  0.19702174    -0.25500
C1800       C  0.23140509  0.74191284  0.16168727     0.27200
H1801       H  0.26440362  0.79586082  0.14814323     0.13000
N1802       N  0.26734322  0.80116022  0.21530328    -0.82700
H1803       H  0.22216591  0.72720076  0.21072759     0.17800
N1804       N  0.22032501  0.72132807  0.14356878    -0.81300
H1805       H  0.27536068  0.81402816  0.19862302     0.33500
H1806       H  0.25347158  0.81084849  0.22884187     0.37900
H1807       H  0.21271921  0.70822138  0.16025714     0.33400
H1808       H  0.20528970  0.72835864  0.12965172     0.30100
H1809       H  0.19365276  0.79294537  0.08568616     0.33400
H1810       H  0.19508849  0.77197588  0.11686211     0.30100
H1811       H  0.30013776  0.75085766  0.02941791     0.38000
H1812       H  0.30070587  0.72859230  0.05876160     0.33500
C1813       C  0.08083473  0.57848063  0.30199437    -0.20300
C1814       C  0.10732176  0.57546889  0.29898963     0.35900
C1815       C  0.12320606  0.59603097  0.30500313    -0.26300
C1816       C  0.11353074  0.61941313  0.31455087     0.02400
C1817       C  0.08738337  0.62251817  0.31836532     0.27200
C1818       C  0.07128278  0.60209176  0.31191005    -0.25400
N1819       N  0.11818100  0.55160814  0.29012646    -0.82800
H1820       H  0.14340802  0.59380973  0.30247137     0.13000
C1821       C  0.13141548  0.64014422  0.32118155     0.02300
N1822       N  0.07734695  0.64635083  0.32888060    -0.81300
H1823       H  0.05115643  0.60475702  0.31445795     0.17800
C1824       C  0.13300964  0.66035189  0.29880685    -0.26200
C1825       C  0.15161298  0.67899901  0.30260548     0.35800
C1826       C  0.16901824  0.67715643  0.32928822    -0.20200
C1827       C  0.16679033  0.65715420  0.35208008    -0.25500
C1828       C  0.14816631  0.63873589  0.34836640     0.27200
H1829       H  0.12009115  0.66119267  0.27784866     0.13000
N1830       N  0.15353880  0.69897221  0.27860782    -0.82700
H1831       H  0.17978195  0.65579127  0.37291008     0.17800
N1832       N  0.14638709  0.61832190  0.37177451    -0.81300
H1833       H  0.14088476  0.69615675  0.25890066     0.33500
H1834       H  0.14768997  0.71537977  0.29077546     0.37900
H1835       H  0.16025618  0.61986755  0.39022220     0.33400
H1836       H  0.12904369  0.61985495  0.38415376     0.30100
H1837       H  0.05770700  0.64560037  0.33032324     0.33400
H1838       H  0.08375428  0.64986407  0.35326514     0.30100
H1839       H  0.11464569  0.53934033  0.31003809     0.38000
H1840       H  0.13775463  0.55294742  0.28792886     0.33500
C1841       C  0.32517724  0.66699151  0.41315779    -0.20300
C1842       C  0.34040070  0.66732275  0.44225106     0.35900
C1843       C  0.35911400  0.64893214  0.44618046    -0.26300
C1844       C  0.36279657  0.63010224  0.42193019     0.02400
C1845       C  0.34755908  0.62958715  0.39304962     0.27200
C1846       C  0.32879636  0.64790293  0.38907833    -0.25400
N1847       N  0.33650565  0.68594074  0.46802539    -0.82800
H1848       H  0.37063688  0.64897288  0.46858434     0.13000
C1849       C  0.38209029  0.61050881  0.42782630     0.02300
N1850       N  0.35142973  0.61063106  0.36772002    -0.81300
H1851       H  0.31729314  0.64757284  0.36666341     0.17800
C1852       C  0.37444864  0.58550029  0.43137988    -0.26200
C1853       C  0.39186600  0.56647175  0.43870175     0.35800
C1854       C  0.41761217  0.57264428  0.44271151    -0.20200
C1855       C  0.42523792  0.59772855  0.43836310    -0.25500
C1856       C  0.40774565  0.61669654  0.43102591     0.27200
H1857       H  0.35468036  0.58088806  0.42887362     0.13000
N1858       N  0.38341545  0.54097671  0.44206688    -0.82700
H1859       H  0.44486242  0.60271185  0.44142229     0.17800
N1860       N  0.41585841  0.64225082  0.42704347    -0.81300
H1861       H  0.36391355  0.53979052  0.43905665     0.33500
H1862       H  0.39147078  0.53060165  0.42240841     0.37900
H1863       H  0.43530283  0.64372520  0.43044849     0.33400
H1864       H  0.41228985  0.64742414  0.40219515     0.30100
H1865       H  0.33858250  0.61277735  0.34811682     0.33400
H1866       H  0.36933483  0.61342529  0.35736525     0.30100
H1867       H  0.31862144  0.68297014  0.47835631     0.38000
H1868       H  0.34936475  0.68360984  0.48757687     0.33500
C1869       C  0.32780521  0.82832891  0.43154865    -0.20300
C1870       C  0.32350888  0.85220956  0.44567365     0.35900
C1871       C  0.34330961  0.86962079  0.44665400    -0.26300
C1872       C  0.36711911  0.86367143  0.43326198     0.02400
C1873       C  0.37159929  0.83938493  0.42029239     0.27200
C1874       C  0.35195304  0.82183815  0.42005966    -0.25400
N1875       N  0.29905219  0.85865385  0.45870032    -0.82800
H1876       H  0.34011141  0.88802715  0.45753199     0.13000
C1877       C  0.38712265  0.88306837  0.43309880     0.02300
N1878       N  0.39577323  0.83293531  0.40630640    -0.81300
H1879       H  0.35510291  0.80349105  0.40894928     0.17800
C1880       C  0.41061287  0.87753715  0.44719325    -0.26200
C1881       C  0.42954649  0.89578694  0.44915385     0.35800
C1882       C  0.42445431  0.92034775  0.43793625    -0.20200
C1883       C  0.40125228  0.92573532  0.42300603    -0.25500
C1884       C  0.38275007  0.90713448  0.41963584     0.27200
H1885       H  0.41394469  0.85910018  0.45762448     0.13000
N1886       N  0.45347351  0.88971880  0.46379332    -0.82700
H1887       H  0.39751973  0.94458898  0.41423596     0.17800
N1888       N  0.35952711  0.91256586  0.40275784    -0.81300
H1889       H  0.45433153  0.87067042  0.46984986     0.33500
H1890       H  0.45493231  0.89960713  0.48645070     0.37900
H1891       H  0.35932832  0.93112230  0.39434676     0.33400
H1892       H  0.35876164  0.90117468  0.38131594     0.30100
H1893       H  0.39595251  0.81430558  0.39797239     0.33400
H1894       H  0.39867507  0.84412591  0.38511586     0.30100
H1895       H  0.29531708  0.84678703  0.47898664     0.38000
H1896       H  0.29903522  0.87696046  0.46825038     0.33500
C1897       C  0.07810055  0.42453910  0.69746934    -0.20300
C1898       C  0.10413792  0.43001354  0.69498448     0.35900
C1899       C  0.12125234  0.41062367  0.68788914    -0.26300
C1900       C  0.11307092  0.38600297  0.68200047     0.02400
C1901       C  0.08710429  0.38053814  0.68362428     0.27200
C1902       C  0.06992144  0.39980715  0.69152959    -0.25400
N1903       N  0.11318557  0.45525588  0.69924043    -0.82800
H1904       H  0.14121178  0.41474887  0.68688627     0.13000
C1905       C  0.13215181  0.36622863  0.67480700     0.02300
N1906       N  0.07830175  0.35548094  0.67716445    -0.81300
H1907       H  0.05005792  0.39539524  0.69335751     0.17800
C1908       C  0.13324851  0.34496515  0.69536706    -0.26200
C1909       C  0.15214826  0.32674368  0.69099590     0.35800
C1910       C  0.17051320  0.32985754  0.66538284    -0.20200
C1911       C  0.16907697  0.35106259  0.64452672    -0.25500
C1912       C  0.15004937  0.36912007  0.64879087     0.27200
H1913       H  0.11967528  0.34293794  0.71559807     0.13000
N1914       N  0.15299656  0.30549645  0.71305831    -0.82700
H1915       H  0.18270956  0.35347254  0.62445010     0.17800
N1916       N  0.14876075  0.39037387  0.62672212    -0.81300
H1917       H  0.13779950  0.30573752  0.72986209     0.33500
H1918       H  0.16927559  0.30715668  0.72755507     0.37900
H1919       H  0.16335897  0.38982100  0.60900693     0.33400
H1920       H  0.13194438  0.38901596  0.61330075     0.30100
H1921       H  0.05872003  0.35454779  0.67958122     0.33400
H1922       H  0.08254277  0.35116295  0.65210255     0.30100
H1923       H  0.10613212  0.46589432  0.67937382     0.38000
H1924       H  0.13280069  0.45592590  0.69719705     0.33500
C1925       C  0.42041360  0.41851254  0.53653756    -0.20300
C1926       C  0.42391507  0.39994757  0.56155229     0.35900
C1927       C  0.40567837  0.38100543  0.56588543    -0.26300
C1928       C  0.38399941  0.38014497  0.54598645     0.02400
C1929       C  0.38079324  0.39804944  0.52043011     0.27200
C1930       C  0.39887965  0.41703823  0.51607935    -0.25400
N1931       N  0.44557091  0.40058464  0.58302826    -0.82800
H1932       H  0.40798651  0.36723709  0.58559432     0.13000
C1933       C  0.36398558  0.36141894  0.55346509     0.02300
N1934       N  0.35907978  0.39686594  0.49904870    -0.81300
H1935       H  0.39610072  0.43074762  0.49642048     0.17800
C1936       C  0.34031336  0.37003460  0.56391573    -0.26200
C1937       C  0.32065189  0.35331129  0.57140742     0.35800
C1938       C  0.32480421  0.32704662  0.56897300    -0.20200
C1939       C  0.34864835  0.31848811  0.55822376    -0.25500
C1940       C  0.36821937  0.33540875  0.55038379     0.27200
H1941       H  0.33715886  0.39006249  0.56616082     0.13000
N1942       N  0.29644493  0.36308099  0.58109982    -0.82700
H1943       H  0.35217209  0.29852155  0.55624354     0.17800
N1944       N  0.39233962  0.32633267  0.53921884    -0.81300
H1945       H  0.29686775  0.38265752  0.58276870     0.33500
H1946       H  0.28387573  0.35865610  0.56183058     0.37900
H1947       H  0.39246235  0.30672694  0.53833455     0.33400
H1948       H  0.39507212  0.33250350  0.51455093     0.30100
H1949       H  0.35949315  0.41133497  0.48139301     0.33400
H1950       H  0.36006936  0.38004518  0.48547773     0.30100
H1951       H  0.44410095  0.41661356  0.59815674     0.38000
H1952       H  0.44560166  0.38523015  0.59929643     0.33500
C1953       C  0.31501139  0.16129205  0.56389233    -0.20300
C1954       C  0.33420913  0.16415728  0.53937522     0.35900
C1955       C  0.35198121  0.14479952  0.53456454    -0.26300
C1956       C  0.35067730  0.12255876  0.55324017     0.02400
C1957       C  0.33077423  0.11900660  0.57609761     0.27200
C1958       C  0.31330605  0.13837226  0.58136764    -0.25400
N1959       N  0.33562711  0.18653747  0.51944112    -0.82800
H1960       H  0.36707537  0.14711270  0.51641705     0.13000
C1961       C  0.37030661  0.10303999  0.54890933     0.02300
N1962       N  0.32853814  0.09574949  0.59405591    -0.81300
H1963       H  0.29857754  0.13561815  0.59990968     0.17800
C1964       C  0.38747638  0.09871375  0.57496000    -0.26200
C1965       C  0.40639077  0.08042896  0.57166938     0.35800
C1966       C  0.40811254  0.06604106  0.54194760    -0.20200
C1967       C  0.39044733  0.07004410  0.51622889    -0.25500
C1968       C  0.37157531  0.08839371  0.51943749     0.27200
H1969       H  0.38625972  0.10971087  0.59789389     0.13000
N1970       N  0.42354560  0.07629111  0.59873150    -0.82700
H1971       H  0.39165696  0.05915575  0.49320619     0.17800
N1972       N  0.35368157  0.09224476  0.49296311    -0.81300
H1973       H  0.41307097  0.07158095  0.62011386     0.33500
H1974       H  0.43291574  0.09315157  0.60363138     0.37900
H1975       H  0.35724183  0.08000524  0.47288179     0.33400
H1976       H  0.33588804  0.08757994  0.50239101     0.30100
H1977       H  0.31287110  0.09610633  0.61006487     0.33400
H1978       H  0.32521398  0.08157285  0.57636943     0.30100
H1979       H  0.31941539  0.18723997  0.50467663     0.38000
H1980       H  0.35088507  0.18565137  0.50277218     0.33500
C1981       C  0.25175627  0.25549186  0.96162759    -0.20300
C1982       C  0.27058774  0.24396060  0.94160859     0.35900
C1983       C  0.26834081  0.24425608  0.90636280    -0.26300
C1984       C  0.24763634  0.25555606  0.89068467     0.02400
C1985       C  0.22900013  0.26727455  0.91049984     0.27200
C1986       C  0.23122347  0.26708761  0.94564386    -0.25400
N1987       N  0.29154221  0.23146171  0.95694795    -0.82800
H1988       H  0.28259273  0.23521177  0.89094928     0.13000
C1989       C  0.24598597  0.25527021  0.85342658     0.02300
N1990       N  0.20798903  0.27946841  0.89483009    -0.81300
H1991       H  0.21677484  0.27618781  0.96065626     0.17800
C1992       C  0.22537902  0.24378862  0.83756733    -0.26200
C1993       C  0.22366087  0.24274954  0.80222954     0.35800
C1994       C  0.24330831  0.25302830  0.78246747    -0.20200
C1995       C  0.26368087  0.26475214  0.79862313    -0.25500
C1996       C  0.26508849  0.26620521  0.83373784     0.27200
H1997       H  0.21072360  0.23540055  0.85287240     0.13000
N1998       N  0.20260528  0.23050241  0.78661406    -0.82700
H1999       H  0.27862904  0.27302200  0.78371295     0.17800
N2000       N  0.28583229  0.27884020  0.84955747    -0.81300
H2001       H  0.19089702  0.22241655  0.80478736     0.33500
H2002       H  0.19183417  0.24436736  0.77502466     0.37900
H2003       H  0.29844028  0.28567848  0.83152887     0.33400
H2004       H  0.27858559  0.29446799  0.86229919     0.30100
H2005       H  0.19583016  0.28703992  0.91296739     0.33400
H2006       H  0.21502505  0.29456674  0.88096879     0.30100
H2007       H  0.28447416  0.21592233  0.96987824     0.38000
H2008       H  0.30387361  0.22444501  0.93861796     0.33500
C2009       C  0.25049852  0.24530246  0.46177764    -0.20300
C2010       C  0.23252254  0.25873353  0.44296403     0.35900
C2011       C  0.23224865  0.25660336  0.40791755    -0.26300
C2012       C  0.24961785  0.24131488  0.39097716     0.02400
C2013       C  0.26775456  0.22790496  0.40959827     0.27200
C2014       C  0.26812499  0.23018915  0.44486536    -0.25400
N2015       N  0.21491180  0.27517343  0.45929062    -0.82800
H2016       H  0.21872842  0.26747354  0.39378432     0.13000
C2017       C  0.24979879  0.24124693  0.35367001     0.02300
N2018       N  0.28558994  0.21195083  0.39260505    -0.81300
H2019       H  0.28179479  0.21968817  0.45922866     0.17800
C2020       C  0.27181201  0.24859631  0.33699397    -0.26200
C2021       C  0.27280334  0.25033427  0.30187249     0.35800
C2022       C  0.25124686  0.24406871  0.28265432    -0.20200
C2023       C  0.22900976  0.23706911  0.29952920    -0.25500
C2024       C  0.22805509  0.23561507  0.33482686     0.27200
H2025       H  0.28819083  0.25372142  0.35162913     0.13000
N2026       N  0.29550457  0.25904745  0.28589938    -0.82700
H2027       H  0.21238026  0.23237341  0.28516041     0.17800
N2028       N  0.20516509  0.22835970  0.35159246    -0.81300
H2029       H  0.30966429  0.26217529  0.30359179     0.33500
H2030       H  0.29152919  0.27647403  0.27520114     0.37900
H2031       H  0.19086000  0.22508708  0.33415809     0.33400
H2032       H  0.20852670  0.21130935  0.36365454     0.30100
H2033       H  0.29769090  0.20353545  0.40986597     0.33400
H2034       H  0.27550229  0.19746010  0.38108809     0.30100
H2035       H  0.19674337  0.26924854  0.45313193     0.38000
H2036       H  0.21746356  0.29322279  0.44966308     0.33500
C2037       C  0.18240654  0.33194653  0.18211693    -0.20300
C2038       C  0.18788707  0.35794019  0.18150215     0.35900
C2039       C  0.16865258  0.37546004  0.18718833    -0.26300
C2040       C  0.14400883  0.36777143  0.19449959     0.02400
C2041       C  0.13856302  0.34192273  0.19653808     0.27200
C2042       C  0.15776104  0.32430675  0.19025281    -0.25400
N2043       N  0.21294713  0.36677983  0.17530658    -0.82800
H2044       H  0.17300425  0.39529230  0.18566775     0.13000
C2045       C  0.12420755  0.38709498  0.19988527     0.02300
N2046       N  0.11353651  0.33367785  0.20481753    -0.81300
H2047       H  0.15323477  0.30450610  0.19102778     0.17800
C2048       C  0.10268272  0.38703598  0.17956596    -0.26200
C2049       C  0.08407169  0.40559840  0.18314966     0.35800
C2050       C  0.08675735  0.42454018  0.20784028    -0.20200
C2051       C  0.10843084  0.42450122  0.22807065    -0.25500
C2052       C  0.12711692  0.40607368  0.22435423     0.27200
H2053       H  0.10055361  0.37276828  0.16029108     0.13000
N2054       N  0.06291751  0.40545181  0.16099799    -0.82700
H2055       H  0.11074096  0.43874588  0.24731780     0.17800
N2056       N  0.14900050  0.40647736  0.24547915    -0.81300
H2057       H  0.06965543  0.40652275  0.13629980     0.33500
H2058       H  0.05358983  0.38830426  0.16373724     0.37900
H2059       H  0.14846181  0.42184789  0.26188953     0.33400
H2060       H  0.14850380  0.39038083  0.26038830     0.30100
H2061       H  0.11258368  0.31408604  0.20499042     0.33400
H2062       H  0.10958067  0.33969316  0.22933477     0.30100
H2063       H  0.21843160  0.37781794  0.19579910     0.38000
H2064       H  0.21261399  0.37820257  0.15401079     0.33500
C2065       C  0.42469966  0.42523389  0.05294804    -0.20300
C2066       C  0.39864696  0.42988393  0.05753465     0.35900
C2067       C  0.38211109  0.40977038  0.06346483    -0.26300
C2068       C  0.39082012  0.38500950  0.06558682     0.02400
C2069       C  0.41680927  0.38023738  0.06183879     0.27200
C2070       C  0.43348756  0.40036484  0.05555202    -0.25400
N2071       N  0.38900739  0.45507396  0.05657736    -0.82800
H2072       H  0.36216383  0.41342437  0.06651675     0.13000
C2073       C  0.37225148  0.36455383  0.07214817     0.02300
N2074       N  0.42612661  0.35501421  0.06452263    -0.81300
H2075       H  0.45336756  0.39654791  0.05215536     0.17800
C2076       C  0.36872048  0.34534288  0.04831361    -0.26200
C2077       C  0.34963908  0.32712725  0.05241231     0.35800
C2078       C  0.33389822  0.32801338  0.08123584    -0.20200
C2079       C  0.33801431  0.34695788  0.10536265    -0.25500
C2080       C  0.35693936  0.36509180  0.10119047     0.27200
H2081       H  0.38037071  0.34507404  0.02587930     0.13000
N2082       N  0.34581849  0.30829750  0.02696850    -0.82700
H2083       H  0.32638857  0.34765370  0.12780849     0.17800
N2084       N  0.36063180  0.38419085  0.12633261    -0.81300
H2085       H  0.35912214  0.31012272  0.00767321     0.33500
H2086       H  0.32822601  0.31155574  0.01616491     0.37900
H2087       H  0.34773179  0.38211910  0.14606672     0.33400
H2088       H  0.37851771  0.38154757  0.13656308     0.30100
H2089       H  0.44564332  0.35461782  0.06108152     0.33400
H2090       H  0.42265035  0.34896243  0.08908201     0.30100
H2091       H  0.39652759  0.46475234  0.07712012     0.38000
H2092       H  0.36946775  0.45520467  0.05981385     0.33500
C2093       C  0.41702884  0.07195655  0.05416578    -0.20300
C2094       C  0.39397490  0.06747807  0.07074274     0.35900
C2095       C  0.37541045  0.08636318  0.07123701    -0.26300
C2096       C  0.37906515  0.10919626  0.05424812     0.02400
C2097       C  0.40212489  0.11340034  0.03730272     0.27200
C2098       C  0.42106556  0.09504794  0.03830561    -0.25400
N2099       N  0.38950962  0.04379117  0.08681539    -0.82800
H2100       H  0.35797773  0.08322623  0.08481961     0.13000
C2101       C  0.35910700  0.12892118  0.05541691     0.02300
N2102       N  0.40588700  0.13591121  0.01812540    -0.81300
H2103       H  0.43856717  0.09815144  0.02481898     0.17800
C2104       C  0.36565716  0.15325138  0.06570553    -0.26200
C2105       C  0.34752456  0.17225514  0.06898384     0.35800
C2106       C  0.32203156  0.16693509  0.06171588    -0.20200
C2107       C  0.31541367  0.14264569  0.05111613    -0.25500
C2108       C  0.33372200  0.12365628  0.04751026     0.27200
H2109       H  0.38498207  0.15723085  0.07245831     0.13000
N2110       N  0.35480808  0.19658351  0.08134574    -0.82700
H2111       H  0.29587045  0.13845559  0.04582429     0.17800
N2112       N  0.32663407  0.09907268  0.03596347    -0.81300
H2113       H  0.37428001  0.19753972  0.08478436     0.33500
H2114       H  0.34664369  0.19893295  0.10512679     0.37900
H2115       H  0.30729203  0.09825637  0.03137726     0.33400
H2116       H  0.33565590  0.09594519  0.01290230     0.30100
H2117       H  0.42379790  0.13606572  0.00710972     0.33400
H2118       H  0.39295793  0.13567750  0.99839455     0.30100
H2119       H  0.40236449  0.04217136  0.10650015     0.38000
H2120       H  0.37154778  0.04342349  0.09767100     0.33500
C2121       C  0.82082594  0.16825723  0.67333523    -0.20300
C2122       C  0.83674352  0.16977128  0.70168111     0.35900
C2123       C  0.85589049  0.15177465  0.70583226    -0.26300
C2124       C  0.85961789  0.13247416  0.68215411     0.02400
C2125       C  0.84412445  0.13138288  0.65348213     0.27200
C2126       C  0.82469151  0.14895693  0.64970603    -0.25400
N2127       N  0.83314874  0.18918945  0.72644475    -0.82800
H2128       H  0.86762790  0.15246874  0.72801180     0.13000
C2129       C  0.87883714  0.11270576  0.68840292     0.02300
N2130       N  0.84841272  0.11257250  0.62806635    -0.81300
H2131       H  0.81287698  0.14794527  0.62761531     0.17800
C2132       C  0.87129052  0.08746521  0.68842681    -0.26200
C2133       C  0.88859613  0.06801718  0.69400124     0.35800
C2134       C  0.91401118  0.07393248  0.70071840    -0.20200
C2135       C  0.92160956  0.09920824  0.70053294    -0.25500
C2136       C  0.90433242  0.11864358  0.69429951     0.27200
H2137       H  0.85170912  0.08291003  0.68398184     0.13000
N2138       N  0.88049720  0.04230490  0.69227793    -0.82700
H2139       H  0.94109265  0.10384045  0.70555982     0.17800
N2140       N  0.91260229  0.14431935  0.69371302    -0.81300
H2141       H  0.86124744  0.04123358  0.68712331     0.33500
H2142       H  0.88978391  0.03391632  0.67189217     0.37900
H2143       H  0.93186937  0.14548600  0.69871487     0.33400
H2144       H  0.91009528  0.15098587  0.66927735     0.30100
H2145       H  0.83531807  0.11422971  0.60866919     0.33400
H2146       H  0.86611183  0.11599688  0.61742747     0.30100
H2147       H  0.81560244  0.18627284  0.73778909     0.38000
H2148       H  0.84657418  0.18777731  0.74547158     0.33500
C2149       C  0.92040062  0.92295635  0.80303582    -0.20300
C2150       C  0.89426288  0.92713801  0.80710697     0.35900
C2151       C  0.87826819  0.90670761  0.81336645    -0.26300
C2152       C  0.88773413  0.88225684  0.81619544     0.02400
C2153       C  0.91378397  0.87803209  0.81293313     0.27200
C2154       C  0.92986712  0.89842762  0.80653241    -0.25400
N2155       N  0.88401592  0.95205130  0.80510986    -0.82800
H2156       H  0.85819990  0.90982457  0.81607014     0.13000
C2157       C  0.86987482  0.86154293  0.82325235     0.02300
N2158       N  0.92374524  0.85307350  0.81593697    -0.81300
H2159       H  0.94984175  0.89500269  0.80342507     0.17800
C2160       C  0.86668352  0.84206851  0.79974697    -0.26200
C2161       C  0.84783093  0.82375367  0.80422642     0.35800
C2162       C  0.83195911  0.82511696  0.83281154    -0.20200
C2163       C  0.83596035  0.84411061  0.85680634    -0.25500
C2164       C  0.85483053  0.86216133  0.85246763     0.27200
H2165       H  0.87835074  0.84169426  0.77732452     0.13000
N2166       N  0.84429262  0.80439008  0.77943422    -0.82700
H2167       H  0.82425049  0.84489327  0.87917819     0.17800
N2168       N  0.85868710  0.88132844  0.87747547    -0.81300
H2169       H  0.85763092  0.80600917  0.76014445     0.33500
H2170       H  0.82668378  0.80719693  0.76845644     0.37900
H2171       H  0.84594743  0.87926816  0.89739492     0.33400
H2172       H  0.87665843  0.87872941  0.88746603     0.30100
H2173       H  0.94328061  0.85314224  0.81262761     0.33400
H2174       H  0.92032822  0.84705993  0.84052336     0.30100
H2175       H  0.89117411  0.96235314  0.82534647     0.38000
H2176       H  0.86445857  0.95174244  0.80815481     0.33500
C2177       C  0.17542450  0.83226736  0.81665124    -0.20300
C2178       C  0.18033751  0.85837322  0.81945249     0.35900
C2179       C  0.16070595  0.87559977  0.81480626    -0.26300
C2180       C  0.13648460  0.86753257  0.80662120     0.02400
C2181       C  0.13159452  0.84178753  0.80228943     0.27200
C2182       C  0.15109306  0.82436358  0.80740042    -0.25400
N2183       N  0.20520411  0.86742043  0.82688123    -0.82800
H2184       H  0.16433301  0.89553637  0.81722369     0.13000
C2185       C  0.11687396  0.88661193  0.80081748     0.02300
N2186       N  0.10688569  0.83351995  0.79269635    -0.81300
H2187       H  0.14702930  0.80452658  0.80499796     0.17800
C2188       C  0.11337236  0.89541862  0.76811578    -0.26200
C2189       C  0.09598893  0.91455213  0.76150307     0.35800
C2190       C  0.08208625  0.92526480  0.78835975    -0.20200
C2191       C  0.08527636  0.91606870  0.82107050    -0.25500
C2192       C  0.10274095  0.89688617  0.82761554     0.27200
H2193       H  0.12433064  0.88733041  0.74772316     0.13000
N2194       N  0.09204577  0.92279989  0.72755225    -0.82700
H2195       H  0.07438222  0.92411779  0.84154739     0.17800
N2196       N  0.10651935  0.88808035  0.86131455    -0.81300
H2197       H  0.10385334  0.91309907  0.71087954     0.33500
H2198       H  0.07360351  0.91809688  0.72097214     0.37900
H2199       H  0.09489912  0.89782959  0.87817157     0.33400
H2200       H  0.10087284  0.86930554  0.86210541     0.30100
H2201       H  0.10643529  0.81399183  0.79018133     0.33400
H2202       H  0.09449160  0.83810625  0.81227359     0.30100
H2203       H  0.21680289  0.86268346  0.80650663     0.38000
H2204       H  0.20540176  0.88699490  0.82868661     0.33500
C2205       C  0.07655777  0.07291235  0.68553696    -0.20300
C2206       C  0.09913591  0.06850642  0.66777379     0.35900
C2207       C  0.11738616  0.08761655  0.66592186    -0.26300
C2208       C  0.11383766  0.11078411  0.68239278     0.02400
C2209       C  0.09107824  0.11513198  0.70005133     0.27200
C2210       C  0.07250530  0.09634982  0.70079955    -0.25400
N2211       N  0.10341386  0.04463609  0.65180496    -0.82800
H2212       H  0.13453049  0.08437868  0.65170012     0.13000
C2213       C  0.13388020  0.13040317  0.68058840     0.02300
N2214       N  0.08724997  0.13826411  0.71810775    -0.81300
H2215       H  0.05532082  0.09949616  0.71500929     0.17800
C2216       C  0.12749323  0.15482000  0.67053424    -0.26200
C2217       C  0.14580341  0.17373422  0.66761704     0.35800
C2218       C  0.17123180  0.16803677  0.67441803    -0.20200
C2219       C  0.17766626  0.14369703  0.68455424    -0.25500
C2220       C  0.15925838  0.12492954  0.68820706     0.27200
H2221       H  0.10816754  0.15899564  0.66406404     0.13000
N2222       N  0.13876446  0.19839386  0.65651634    -0.82700
H2223       H  0.19720009  0.13931725  0.68960438     0.17800
N2224       N  0.16625927  0.10036422  0.69963378    -0.81300
H2225       H  0.11932182  0.19950495  0.65288016     0.33500
H2226       H  0.14714016  0.20132221  0.63301384     0.37900
H2227       H  0.18565348  0.09936624  0.70375739     0.33400
H2228       H  0.15752012  0.09751629  0.72291461     0.30100
H2229       H  0.06953458  0.13852628  0.72967029     0.33400
H2230       H  0.10054104  0.13902741  0.73738052     0.30100
H2231       H  0.08987907  0.04249170  0.63301941     0.38000
H2232       H  0.12095959  0.04437728  0.63978585     0.33500
C2233       C  0.98969403  0.99911542  0.40473833    -0.20300
C2234       C  0.98064203  0.02021100  0.42295033     0.35900
C2235       C  0.98048560  0.01995988  0.45814401    -0.26300
C2236       C  0.98917067  0.99913779  0.47593438     0.02400
C2237       C  0.99782454  0.97783811  0.45813919     0.27200
C2238       C  0.99779204  0.97795249  0.42274616    -0.25400
N2239       N  0.97132967  0.04195178  0.40599096    -0.82800
H2240       H  0.97345445  0.03620548  0.47173109     0.13000
C2241       C  0.98889277  0.99998552  0.51321610     0.02300
N2242       N  0.00708953  0.95641590  0.47608883    -0.81300
H2243       H  0.00480662  0.96167923  0.40924733     0.17800
C2244       C  0.97467510  0.98225779  0.53095213    -0.26200
C2245       C  0.97391868  0.98242070  0.56624058     0.35800
C2246       C  0.98777227  0.00075252  0.58419087    -0.20200
C2247       C  0.00130579  0.01900648  0.56634481    -0.25500
C2248       C  0.00226596  0.01862217  0.53102646     0.27200
H2249       H  0.96404151  0.96829767  0.51713060     0.13000
N2250       N  0.95902783  0.96412868  0.58387120    -0.82700
H2251       H  0.01201383  0.03298896  0.58001155     0.17800
N2252       N  0.01726118  0.03667928  0.51315729    -0.81300
H2253       H  0.95022305  0.95191405  0.56698133     0.33500
H2254       H  0.94468972  0.97374067  0.59660857     0.37900
H2255       H  0.02584853  0.04914420  0.52991907     0.33400
H2256       H  0.03176096  0.02691776  0.50096651     0.30100
H2257       H  0.01268498  0.94228386  0.45933798     0.33400
H2258       H  0.02323186  0.96203214  0.48902939     0.30100
H2259       H  0.98199777  0.05742231  0.41364756     0.38000
H2260       H  0.95270664  0.04492677  0.41363842     0.33500
C2261       C  0.00102647  0.99597591  0.08353601    -0.20300
C2262       C  0.99221915  0.97494897  0.06512362     0.35900
C2263       C  0.99314054  0.97506770  0.02991760    -0.26300
C2264       C  0.00239194  0.99586552  0.01241333     0.02400
C2265       C  0.01077253  0.01709610  0.03051399     0.27200
C2266       C  0.00999693  0.01693760  0.06586584    -0.25400
N2267       N  0.98163560  0.95365780  0.08191858    -0.82800
H2268       H  0.98611563  0.95896141  0.01612248     0.13000
C2269       C  0.00208080  0.99559181  0.97511478     0.02300
N2270       N  0.02013630  0.03867835  0.01288163    -0.81300
H2271       H  0.01678632  0.03313316  0.07964984     0.17800
C2272       C  0.98808448  0.01388741  0.95834948    -0.26200
C2273       C  0.98696971  0.01437379  0.92314668     0.35800
C2274       C  0.00045325  0.99625532  0.90415775    -0.20200
C2275       C  0.01397836  0.97752893  0.92099472    -0.25500
C2276       C  0.01505772  0.97710139  0.95632965     0.27200
H2277       H  0.97768682  0.02768648  0.97291015     0.13000
N2278       N  0.97178802  0.03292661  0.90668295    -0.82700
H2279       H  0.02427230  0.96359572  0.90654096     0.17800
N2280       N  0.02958706  0.95826012  0.97320241    -0.81300
H2281       H  0.96332014  0.04493003  0.92425885     0.33500
H2282       H  0.95718785  0.02349563  0.89443624     0.37900
H2283       H  0.03797170  0.94607945  0.95577442     0.33400
H2284       H  0.04424301  0.96736565  0.98575816     0.30100
H2285       H  0.02540795  0.05275972  0.02982052     0.33400
H2286       H  0.03646379  0.03324751  0.00000337     0.30100
H2287       H  0.99195049  0.93776669  0.07484695     0.38000
H2288       H  0.96315538  0.95129528  0.07356316     0.33500
C2289       C  0.82513036  0.16761258  0.16798848    -0.20300
C2290       C  0.84091898  0.16781100  0.19653996     0.35900
C2291       C  0.85896548  0.14865530  0.20050478    -0.26300
C2292       C  0.86184089  0.12946252  0.17643503     0.02400
C2293       C  0.84630747  0.12943569  0.14779652     0.27200
C2294       C  0.82799913  0.14823538  0.14411591    -0.25400
N2295       N  0.83845369  0.18719265  0.22158642    -0.82800
H2296       H  0.87075228  0.14855364  0.22265155     0.13000
C2297       C  0.88114373  0.10948160  0.18140196     0.02300
N2298       N  0.84951186  0.11055002  0.12220456    -0.81300
H2299       H  0.81626958  0.14805256  0.12191277     0.17800
C2300       C  0.87374278  0.08419131  0.18148747    -0.26200
C2301       C  0.89135557  0.06485171  0.18602738     0.35800
C2302       C  0.91703759  0.07069868  0.19092305    -0.20200
C2303       C  0.92447823  0.09601502  0.19023425    -0.25500
C2304       C  0.90683762  0.11542189  0.18560482     0.27200
H2305       H  0.85408162  0.07940280  0.17818443     0.13000
N2306       N  0.88305545  0.03928247  0.18517927    -0.82700
H2307       H  0.94408563  0.10076085  0.19404794     0.17800
N2308       N  0.91491968  0.14115318  0.18513511    -0.81300
H2309       H  0.87447455  0.03599835  0.16197265     0.33500
H2310       H  0.86946373  0.03692543  0.20400453     0.37900
H2311       H  0.93433657  0.14238887  0.18893113     0.33400
H2312       H  0.91147488  0.14814887  0.16107982     0.30100
H2313       H  0.83649439  0.11302405  0.10287610     0.33400
H2314       H  0.86735208  0.11305177  0.11151702     0.30100
H2315       H  0.85180321  0.18488295  0.24054390     0.38000
H2316       H  0.82078705  0.18516871  0.23295164     0.33500
C2317       C  0.82980928  0.82578843  0.32971849    -0.20300
C2318       C  0.83375651  0.84749165  0.34969977     0.35900
C2319       C  0.85229088  0.86479838  0.34025680    -0.26300
C2320       C  0.86737402  0.86073274  0.31183987     0.02400
C2321       C  0.86446557  0.83858155  0.29279226     0.27200
C2322       C  0.84570180  0.82124764  0.30197656    -0.25400
N2323       N  0.81922604  0.85176174  0.37978247    -0.82800
H2324       H  0.85508396  0.88162730  0.35518307     0.13000
C2325       C  0.88570126  0.88035215  0.30230145     0.02300
N2326       N  0.88021492  0.83406151  0.26390986    -0.81300
H2327       H  0.84301371  0.80451321  0.28685811     0.17800
C2328       C  0.91151853  0.87524131  0.30367018    -0.26200
C2329       C  0.92938708  0.89403393  0.29686835     0.35800
C2330       C  0.92110616  0.91861151  0.28906952    -0.20200
C2331       C  0.89511137  0.92339106  0.28721788    -0.25500
C2332       C  0.87738099  0.90451376  0.29354883     0.27200
H2333       H  0.91770635  0.85655489  0.31036340     0.13000
N2334       N  0.95576719  0.88808880  0.29758124    -0.82700
H2335       H  0.88849221  0.94202523  0.28104036     0.17800
N2336       N  0.85089128  0.90975337  0.29130346    -0.81300
H2337       H  0.95854797  0.86936653  0.30435982     0.33500
H2338       H  0.96274416  0.88991321  0.27308412     0.37900
H2339       H  0.84786028  0.92849218  0.28480255     0.33400
H2340       H  0.84367083  0.89885339  0.27167434     0.30100
H2341       H  0.87576404  0.81683179  0.25276628     0.33400
H2342       H  0.87619112  0.84788907  0.24616895     0.30100
H2343       H  0.82376494  0.83754607  0.39673935     0.38000
H2344       H  0.82432615  0.86869079  0.39125401     0.33500
C2345       C  0.08339616  0.93140597  0.30788619    -0.20300
C2346       C  0.10908488  0.93824044  0.31053364     0.35900
C2347       C  0.12728993  0.91961479  0.31634405    -0.26300
C2348       C  0.12038287  0.89445401  0.32024600     0.02400
C2349       C  0.09479369  0.88767621  0.31933570     0.27200
C2350       C  0.07652887  0.90621002  0.31325124    -0.25400
N2351       N  0.11662999  0.96402627  0.30733676    -0.82800
H2352       H  0.14701527  0.92467898  0.31768230     0.13000
C2353       C  0.14024909  0.87530532  0.32471982     0.02300
N2354       N  0.08755312  0.86193681  0.32407101    -0.81300
H2355       H  0.05694781  0.90073585  0.31142161     0.17800
C2356       C  0.14571263  0.86675952  0.35709795    -0.26200
C2357       C  0.16449743  0.84882761  0.36224328     0.35800
C2358       C  0.17811737  0.83907277  0.33446066    -0.20200
C2359       C  0.17243135  0.84736396  0.30198997    -0.25500
C2360       C  0.15363077  0.86555056  0.29685664     0.27200
H2361       H  0.13528960  0.87408467  0.37848319     0.13000
N2362       N  0.16888213  0.84032624  0.39583346    -0.82700
H2363       H  0.18275737  0.83973817  0.28071635     0.17800
N2364       N  0.14804248  0.87421174  0.26355761    -0.81300
H2365       H  0.18747185  0.84440205  0.40226949     0.33500
H2366       H  0.16634120  0.82088436  0.39644676     0.37900
H2367       H  0.15973738  0.86540718  0.24588267     0.33400
H2368       H  0.12963995  0.86870569  0.25797840     0.30100
H2369       H  0.06799036  0.86005598  0.32288366     0.33400
H2370       H  0.09496483  0.85152173  0.30400444     0.30100
H2371       H  0.10861297  0.97394525  0.32744531     0.38000
H2372       H  0.13613713  0.96580042  0.30973716     0.33500
C2373       C  0.17478494  0.16846678  0.16930881    -0.20300
C2374       C  0.15807553  0.17097230  0.19694822     0.35900
C2375       C  0.13843863  0.15345503  0.20113396    -0.26300
C2376       C  0.13534849  0.13334188  0.17859819     0.02400
C2377       C  0.15204507  0.13071400  0.15123084     0.27200
C2378       C  0.17136597  0.14835263  0.14669879    -0.25400
N2379       N  0.16128855  0.19093704  0.22095134    -0.82800
H2380       H  0.12569506  0.15521535  0.22237021     0.13000
C2381       C  0.11577020  0.11400886  0.18505138     0.02300
N2382       N  0.14956892  0.10982286  0.12847964    -0.81300
H2383       H  0.18384117  0.14630491  0.12523424     0.17800
C2384       C  0.09671433  0.10974624  0.16133892    -0.26200
C2385       C  0.07918930  0.09010106  0.16543532     0.35800
C2386       C  0.08057585  0.07463005  0.19418545    -0.20200
C2387       C  0.09963554  0.07921113  0.21791761    -0.25500
C2388       C  0.11725119  0.09856258  0.21357113     0.27200
H2389       H  0.09584475  0.12153626  0.13925010     0.13000
N2390       N  0.06043809  0.08555793  0.14021541    -0.82700
H2391       H  0.10079392  0.06767420  0.24021175     0.17800
N2392       N  0.13692588  0.10235556  0.23776853    -0.81300
H2393       H  0.06191371  0.09871036  0.12087841     0.33500
H2394       H  0.06423133  0.06803304  0.12941097     0.37900
H2395       H  0.13530129  0.08951742  0.25745763     0.33400
H2396       H  0.15407573  0.09857798  0.22576892     0.30100
H2397       H  0.16326490  0.11063129  0.10954902     0.33400
H2398       H  0.15307425  0.09346051  0.14208552     0.30100
H2399       H  0.17843369  0.18800220  0.23310985     0.38000
H2400       H  0.14730425  0.19023060  0.23951008     0.33500
loop_ 
_geom_bond_atom_site_label_1 
_geom_bond_atom_site_label_2 
_geom_bond_distance 
_geom_bond_site_symmetry_2 
_ccdc_geom_bond_type 
Zr1           O2   2.443       .  S
Zr1           O3   2.456   1_655  S
Zr1           O4   2.466   1_655  S
Zr1           O7   2.458       .  S
Zr1           O9   2.384   1_645  S
Zr1          O10   2.388   1_545  S
Zr1          O11   2.417   1_655  S
Zr1          O12   2.403       .  S
O2           H58   0.990   1_655  S
O2           H66   0.990   1_655  S
O3           C23   1.287   1_545  A
O4           C25   1.289       .  A
O5          Zr15   2.427   1_545  S
O5           C24   1.284       .  A
O6          Zr14   2.421       .  S
O6           C25   1.284       .  A
O7           C24   1.290       .  A
O8          Zr16   2.398       .  S
O8           C23   1.277       .  A
O9          Zr14   2.398   1_565  S
O9          Zr16   2.383       .  S
O10         Zr15   2.390       .  S
O10         Zr16   2.380   1_655  S
O10          H45   0.966       .  S
O11         Zr14   2.404       .  S
O11         Zr31   2.392   1_455  S
O11          H48   0.964       .  S
O12         Zr15   2.388   1_545  S
O12         Zr31   2.385       .  S
Zr13         O38   2.442       .  S
Zr13         O32   2.448       .  S
Zr13         O40   2.439       .  S
Zr13         O28   2.458   1_655  S
Zr13         O19   2.402       .  S
Zr13         O20   2.411   1_655  S
Zr13         O21   2.378   1_665  S
Zr13         O22   2.387       .  S
Zr14         O33   2.435       .  S
Zr14         O26   2.435   1_545  S
Zr14         O27   2.427   1_545  S
Zr14         O20   2.399   1_545  S
Zr14         O21   2.394       .  S
Zr15         O17   2.435   1_565  S
Zr15         O39   2.435       .  S
Zr15         O41   2.419       .  S
Zr15         O19   2.389       .  S
Zr15         O22   2.394       .  S
Zr16         O42   2.435   1_455  S
Zr16         O43   2.436       .  S
Zr16         O18   2.437       .  S
Zr16         O19   2.382   1_455  S
Zr16         O20   2.384       .  S
O17          H54   0.990       .  S
O18          H49   0.990       .  S
O18          H63   0.990       .  S
O20          H46   0.965       .  S
O21         Zr31   2.383   1_455  S
O22         Zr31   2.376   1_565  S
O22          H47   0.966       .  S
C23        C2261   1.487       .  S
C24        C2302   1.491       .  S
C25        C2386   1.491       .  S
O26          H62   0.990       .  S
O27          C29   1.284       .  A
O28          C29   1.288       .  A
C29        C2345   1.491       .  S
O30         Zr31   2.439       .  S
O30          H59   0.991       .  S
Zr31         O34   2.438   1_655  S
Zr31         O35   2.441       .  S
Zr31         O36   2.405       .  S
O32          C37   1.286       .  A
O33          H50   0.990       .  S
O33          H65   0.990       .  S
O34          H51   0.990       .  S
O35          H55   0.990       .  S
O35          H64   0.990       .  S
O36          C37   1.278   1_545  A
C37        C2233   1.491       .  S
O38          H57   0.991   1_655  S
O38          H61   0.990   1_655  S
O39          H53   0.990       .  S
O39          H60   0.990       .  S
O40          C44   1.285       .  A
O41          C44   1.284       .  A
O42          H52   0.990       .  S
O43          H56   0.990   1_455  S
C44        C2330   1.486       .  S
Zr67         O68   2.442       .  S
Zr67         O69   2.450       .  S
Zr67         O70   2.458   1_655  S
Zr67         O73   2.444       .  S
Zr67         O75   2.384   1_645  S
Zr67         O76   2.387   1_545  S
Zr67         O77   2.414   1_655  S
Zr67         O78   2.404       .  S
O68         H124   0.990   1_655  S
O68         H132   0.991       .  S
O69          C89   1.286   1_545  A
O70          C91   1.287       .  A
O71         Zr81   2.428   1_545  S
O71          C90   1.284       .  A
O72         Zr80   2.431   1_545  S
O72          C91   1.283       .  A
O73          C90   1.287       .  A
O74         Zr82   2.399       .  S
O74          C89   1.277       .  A
O75         Zr80   2.398       .  S
O75         Zr82   2.387   1_455  S
O76         Zr81   2.396       .  S
O76         Zr82   2.376       .  S
O76         H111   0.966   1_565  S
O77         Zr80   2.399   1_545  S
O77         Zr97   2.381       .  S
O77         H114   0.964       .  S
O78         Zr81   2.390   1_545  S
O78         Zr97   2.392   1_655  S
Zr79        O104   2.443   1_455  S
Zr79         O98   2.446       .  S
Zr79        O106   2.436   1_455  S
Zr79         O94   2.449       .  S
Zr79         O85   2.401   1_455  S
Zr79         O86   2.410       .  S
Zr79         O87   2.380       .  S
Zr79         O88   2.384   1_455  S
Zr80         O99   2.436   1_565  S
Zr80         O92   2.436       .  S
Zr80         O93   2.421       .  S
Zr80         O86   2.401       .  S
Zr80         O87   2.401       .  S
Zr81         O83   2.436   1_565  S
Zr81        O105   2.440       .  S
Zr81        O107   2.428       .  S
Zr81         O85   2.388       .  S
Zr81         O88   2.390       .  S
Zr82        O108   2.435       .  S
Zr82        O109   2.435       .  S
Zr82         O84   2.437   1_655  S
Zr82         O85   2.381       .  S
Zr82         O86   2.383   1_655  S
O83         H120   0.990       .  S
O84         H115   0.990       .  S
O84         H129   0.990       .  S
O86         H112   0.965       .  S
O87         Zr97   2.385   1_565  S
O88         Zr97   2.379   1_665  S
O88         H113   0.966       .  S
C89        C2246   1.481   1_565  S
C90        C2134   1.486       .  S
C91        C2205   1.478       .  S
O92         H128   0.990       .  S
O93          C95   1.283       .  A
O94          C95   1.285       .  A
C95        C2190   1.476       .  S
O96         Zr97   2.440       .  S
O96         H125   0.990       .  S
Zr97        O100   2.437       .  S
Zr97        O101   2.438   1_455  S
Zr97        O102   2.405   1_455  S
O98         C103   1.286       .  A
O99         H116   0.990       .  S
O99         H131   0.990       .  S
O100        H117   0.990       .  S
O101        H121   0.990       .  S
O101        H130   0.989       .  S
O102        C103   1.279   1_645  A
C103       C2274   1.482       .  S
O104        H123   0.991   1_655  S
O104        H127   0.990   1_655  S
O105        H119   0.990       .  S
O105        H126   0.990       .  S
O106        C110   1.286       .  A
O107        C110   1.285       .  A
O108        H118   0.990       .  S
O109        H122   0.990       .  S
C110       C2149   1.487       .  S
Zr133       O134   2.440       .  S
Zr133       O135   2.456       .  S
Zr133       O136   2.451       .  S
Zr133       O139   2.460       .  S
Zr133       O141   2.384       .  S
Zr133       O142   2.386       .  S
Zr133       O143   2.420       .  S
Zr133       O144   2.403       .  S
O134        H190   0.990       .  S
O134        H198   0.990       .  S
O135        C155   1.287   1_554  A
O136        C157   1.287       .  A
O137       Zr147   2.417       .  S
O137        C156   1.284       .  A
O138       Zr146   2.436       .  S
O138        C157   1.285       .  A
O139        C156   1.289       .  A
O140       Zr148   2.398       .  S
O140        C155   1.278   1_554  A
O141       Zr146   2.396       .  S
O141       Zr148   2.385       .  S
O142       Zr147   2.394       .  S
O142       Zr148   2.378       .  S
O142        H177   0.966       .  S
O143       Zr146   2.400       .  S
O143       Zr163   2.380       .  S
O143        H180   0.971       .  S
O144       Zr147   2.384       .  S
O144       Zr163   2.391       .  S
Zr145       O170   2.442       .  S
Zr145       O164   2.446       .  S
Zr145       O172   2.450       .  S
Zr145       O160   2.459       .  S
Zr145       O151   2.403       .  S
Zr145       O152   2.414       .  S
Zr145       O153   2.384       .  S
Zr145       O154   2.386       .  S
Zr146       O165   2.437       .  S
Zr146       O158   2.436       .  S
Zr146       O159   2.420       .  S
Zr146       O152   2.404       .  S
Zr146       O153   2.402       .  S
Zr147       O149   2.437       .  S
Zr147       O171   2.436       .  S
Zr147       O173   2.418       .  S
Zr147       O151   2.388       .  S
Zr147       O154   2.389       .  S
Zr148       O174   2.435       .  S
Zr148       O175   2.436       .  S
Zr148       O150   2.437       .  S
Zr148       O151   2.384       .  S
Zr148       O152   2.384       .  S
O149        H186   0.990       .  S
O150        H181   0.990       .  S
O150        H195   0.990       .  S
O152        H178   0.965       .  S
O153       Zr163   2.381       .  S
O154       Zr163   2.377       .  S
O154        H179   0.966       .  S
C155       C1981   1.489       .  S
C156       C2078   1.494       .  S
C157       C2106   1.484       .  S
O158        H194   0.990       .  S
O159        C161   1.283       .  A
O160        C161   1.288       .  A
C161       C2373   1.491       .  S
O162       Zr163   2.440       .  S
O162        H191   0.990       .  S
Zr163       O166   2.438       .  S
Zr163       O167   2.439       .  S
Zr163       O168   2.405       .  S
O164        C169   1.286       .  A
O165        H182   0.990       .  S
O165        H197   0.990       .  S
O166        H183   0.990       .  S
O167        H187   0.990       .  S
O167        H196   0.990       .  S
O168        C169   1.278       .  A
C169       C2022   1.489       .  S
O170        H189   0.990       .  S
O170        H193   0.990       .  S
O171        H185   0.990       .  S
O171        H192   0.990       .  S
O172        C176   1.288       .  A
O173        C176   1.282       .  A
O174        H184   0.990       .  S
O175        H188   0.990       .  S
C176       C2037   1.491       .  S
Zr199       O200   2.440       .  S
Zr199       O201   2.453       .  S
Zr199       O202   2.463       .  S
Zr199       O205   2.453       .  S
Zr199       O207   2.383       .  S
Zr199       O208   2.389       .  S
Zr199       O209   2.410       .  S
Zr199       O210   2.405       .  S
O200        H256   0.990       .  S
O200        H264   0.990       .  S
O201        C221   1.287       .  A
O202        C223   1.288       .  A
O203       Zr213   2.426       .  S
O203        C222   1.284       .  A
O204       Zr212   2.410       .  S
O204        C223   1.281       .  A
O205        C222   1.289       .  A
O206       Zr214   2.392       .  S
O206        C221   1.276       .  A
O207       Zr212   2.396       .  S
O207       Zr214   2.384       .  S
O208       Zr213   2.395       .  S
O208       Zr214   2.376       .  S
O208        H243   0.965       .  S
O209       Zr212   2.400       .  S
O209       Zr229   2.393       .  S
O209        H246   0.965       .  S
O210       Zr213   2.391       .  S
O210       Zr229   2.388       .  S
Zr211       O236   2.440       .  S
Zr211       O230   2.448       .  S
Zr211       O238   2.449       .  S
Zr211       O226   2.449       .  S
Zr211       O217   2.402       .  S
Zr211       O218   2.410       .  S
Zr211       O219   2.379       .  S
Zr211       O220   2.388       .  S
Zr212       O231   2.436       .  S
Zr212       O224   2.434       .  S
Zr212       O225   2.422       .  S
Zr212       O218   2.393       .  S
Zr212       O219   2.391       .  S
Zr213       O215   2.436       .  S
Zr213       O237   2.439       .  S
Zr213       O239   2.429       .  S
Zr213       O217   2.387       .  S
Zr213       O220   2.394       .  S
Zr214       O240   2.436       .  S
Zr214       O241   2.436       .  S
Zr214       O216   2.436       .  S
Zr214       O217   2.381       .  S
Zr214       O218   2.381       .  S
O215        H252   0.990       .  S
O216        H247   0.990       .  S
O216        H261   0.990       .  S
O218        H244   0.964       .  S
O219       Zr229   2.383       .  S
O220       Zr229   2.382       .  S
O220        H245   0.966       .  S
C221       C2009   1.479       .  S
C222       C1938   1.498       .  S
C223       C1953   1.494       .  S
O224        H260   0.990       .  S
O225        C227   1.283       .  A
O226        C227   1.287       .  A
C227       C2218   1.480       .  S
O228       Zr229   2.440       .  S
O228        H257   0.991       .  S
Zr229       O232   2.437       .  S
Zr229       O233   2.440       .  S
Zr229       O234   2.405       .  S
O230        C235   1.284       .  A
O231        H248   0.990       .  S
O231        H263   0.990       .  S
O232        H249   0.990       .  S
O233        H253   0.990       .  S
O233        H262   0.990       .  S
O234        C235   1.279       .  A
C235       C1994   1.486       .  S
O236        H255   0.989       .  S
O236        H259   0.990       .  S
O237        H251   0.990       .  S
O237        H258   0.990       .  S
O238        C242   1.286       .  A
O239        C242   1.285       .  A
O240        H250   0.990       .  S
O241        H254   0.990       .  S
C242       C1910   1.491       .  S
Zr265       O266   2.442       .  S
Zr265       O267   2.438       .  S
Zr265       O268   2.460       .  S
Zr265       O271   2.457       .  S
Zr265       O273   2.384       .  S
Zr265       O274   2.392       .  S
Zr265       O275   2.411       .  S
Zr265       O276   2.396       .  S
O266        H322   0.990       .  S
O266        H330   0.990       .  S
O267        C287   1.282       .  A
O268        C289   1.287       .  A
O269       Zr279   2.421       .  S
O269        C288   1.284       .  A
O270       Zr278   2.422       .  S
O270        C289   1.282       .  A
O271        C288   1.288       .  A
O272       Zr280   2.410       .  S
O272        C287   1.278       .  A
O273       Zr278   2.398       .  S
O273       Zr280   2.381       .  S
O274       Zr279   2.395       .  S
O274       Zr280   2.379       .  S
O274        H309   0.966       .  S
O275       Zr278   2.400       .  S
O275       Zr295   2.378       .  S
O275        H312   0.964       .  S
O276       Zr279   2.386       .  S
O276       Zr295   2.380       .  S
Zr277       O302   2.444       .  S
Zr277       O296   2.464       .  S
Zr277       O304   2.438       .  S
Zr277       O292   2.439       .  S
Zr277       O283   2.407       .  S
Zr277       O284   2.417       .  S
Zr277       O285   2.377       .  S
Zr277       O286   2.380       .  S
Zr278       O297   2.436       .  S
Zr278       O290   2.438       .  S
Zr278       O291   2.423       .  S
Zr278       O284   2.398       .  S
Zr278       O285   2.396       .  S
Zr279       O281   2.435       .  S
Zr279       O303   2.436       .  S
Zr279       O305   2.426       .  S
Zr279       O283   2.387       .  S
Zr279       O286   2.394       .  S
Zr280       O306   2.435       .  S
Zr280       O307   2.436       .  S
Zr280       O282   2.438       .  S
Zr280       O283   2.397       .  S
Zr280       O284   2.382       .  S
O281        H318   0.990       .  S
O282        H313   0.990       .  S
O282        H327   0.990       .  S
O284        H310   0.964       .  S
O285       Zr295   2.380       .  S
O286       Zr295   2.382       .  S
O286        H311   0.966       .  S
C287       C1798   1.471       .  S
C288       C1826   1.486       .  S
C289       C2358   1.473       .  S
O290        H326   0.990       .  S
O291        C293   1.283       .  A
O292        C293   1.284       .  A
C293       C1869   1.469       .  S
O294       Zr295   2.437       .  S
O294        H323   0.990       .  S
Zr295       O298   2.438       .  S
Zr295       O299   2.437       .  S
Zr295       O300   2.393       .  S
O296        C301   1.288       .  A
O297        H314   0.990       .  S
O297        H329   0.990       .  S
O298        H315   0.990       .  S
O299        H319   0.990       .  S
O299        H328   0.990       .  S
O300        C301   1.278       .  A
C301       C1757   1.495       .  S
O302        H321   0.991       .  S
O302        H325   0.990       .  S
O303        H317   0.990       .  S
O303        H324   0.990       .  S
O304        C308   1.285       .  A
O305        C308   1.284       .  A
O306        H316   0.990       .  S
O307        H320   0.990       .  S
C308       C1841   1.486       .  S
Zr331       O332   2.443       .  S
Zr331       O333   2.466       .  S
Zr331       O334   2.457       .  S
Zr331       O337   2.444       .  S
Zr331       O339   2.379       .  S
Zr331       O340   2.389       .  S
Zr331       O341   2.417       .  S
Zr331       O342   2.408       .  S
O332        H388   0.990       .  S
O332        H396   0.991       .  S
O333        C353   1.289       .  A
O334        C355   1.287       .  A
O335       Zr345   2.417       .  S
O335        C354   1.283       .  A
O336       Zr344   2.415       .  S
O336        C355   1.281       .  A
O337        C354   1.286       .  A
O338       Zr346   2.403       .  S
O338        C353   1.278       .  A
O339       Zr344   2.398       .  S
O339       Zr346   2.382       .  S
O340       Zr345   2.399       .  S
O340       Zr346   2.377       .  S
O340        H375   0.965       .  S
O341       Zr344   2.398       .  S
O341       Zr361   2.391       .  S
O341        H378   0.965       .  S
O342       Zr345   2.386       .  S
O342       Zr361   2.387       .  S
Zr343       O368   2.441       .  S
Zr343       O362   2.449       .  S
Zr343       O370   2.450       .  S
Zr343       O358   2.459       .  S
Zr343       O349   2.401       .  S
Zr343       O350   2.414       .  S
Zr343       O351   2.379       .  S
Zr343       O352   2.388       .  S
Zr344       O363   2.435       .  S
Zr344       O356   2.433       .  S
Zr344       O357   2.419       .  S
Zr344       O350   2.398       .  S
Zr344       O351   2.390       .  S
Zr345       O347   2.436       .  S
Zr345       O369   2.440       .  S
Zr345       O371   2.422       .  S
Zr345       O349   2.384       .  S
Zr345       O352   2.396       .  S
Zr346       O372   2.437       .  S
Zr346       O373   2.435       .  S
Zr346       O348   2.438       .  S
Zr346       O349   2.384       .  S
Zr346       O350   2.387       .  S
O347        H384   0.990       .  S
O348        H379   0.990       .  S
O348        H393   0.990       .  S
O350        H376   0.964       .  S
O351       Zr361   2.383       .  S
O352       Zr361   2.382       .  S
O352        H377   0.966       .  S
C353       C1770   1.493       .  S
C354       C1673   1.488       .  S
C355       C2177   1.492       .  S
O356        H392   0.990       .  S
O357        C359   1.283       .  A
O358        C359   1.288       .  A
C359       C1729   1.486       .  S
O360       Zr361   2.439       .  S
O360        H389   0.990       .  S
Zr361       O364   2.438       .  S
Zr361       O365   2.440       .  S
Zr361       O366   2.408       .  S
O362        C367   1.285       .  A
O363        H380   0.990       .  S
O363        H395   0.990       .  S
O364        H381   0.990       .  S
O365        H385   0.990       .  S
O365        H394   0.990       .  S
O366        C367   1.279       .  A
C367       C1785   1.490   1_556  S
O368        H387   0.990       .  S
O368        H391   0.990       .  S
O369        H383   0.990       .  S
O369        H390   0.990       .  S
O370        C374   1.287       .  A
O371        C374   1.284       .  A
O372        H382   0.990       .  S
O373        H386   0.990       .  S
C374       C1701   1.484       .  S
Zr397       O398   2.441       .  S
Zr397       O399   2.461       .  S
Zr397       O400   2.465       .  S
Zr397       O403   2.455       .  S
Zr397       O405   2.384   1_565  S
Zr397       O406   2.394   1_565  S
Zr397       O407   2.417   1_556  S
Zr397       O408   2.399       .  S
O398        H454   0.990       .  S
O398        H462   0.991       .  S
O399        C419   1.288       .  A
O400        C421   1.289       .  A
O401       Zr411   2.421   1_565  S
O401        C420   1.284       .  A
O402       Zr410   2.418   1_556  S
O402        C421   1.283       .  A
O403        C420   1.288       .  A
O404       Zr412   2.400       .  S
O404        C419   1.277   1_545  A
O405       Zr410   2.400   1_546  S
O405       Zr412   2.382       .  S
O406       Zr411   2.396       .  S
O406       Zr412   2.379       .  S
O406        H441   0.965       .  S
O407       Zr410   2.399       .  S
O407       Zr427   2.385       .  S
O407        H444   0.965       .  S
O408       Zr411   2.385   1_565  S
O408       Zr427   2.378   1_556  S
Zr409       O434   2.442       .  S
Zr409       O428   2.460       .  S
Zr409       O436   2.449       .  S
Zr409       O424   2.461       .  S
Zr409       O415   2.410   1_554  S
Zr409       O416   2.415   1_554  S
Zr409       O417   2.382   1_545  S
Zr409       O418   2.385       .  S
Zr410       O429   2.435       .  S
Zr410       O422   2.435   1_564  S
Zr410       O423   2.425   1_565  S
Zr410       O416   2.399   1_564  S
Zr410       O417   2.393       .  S
Zr411       O413   2.437   1_546  S
Zr411       O435   2.436       .  S
Zr411       O437   2.425   1_556  S
Zr411       O415   2.390       .  S
Zr411       O418   2.391   1_556  S
Zr412       O438   2.436       .  S
Zr412       O439   2.436       .  S
Zr412       O414   2.437       .  S
Zr412       O415   2.393       .  S
Zr412       O416   2.381       .  S
O413        H450   0.990       .  S
O414        H445   0.990       .  S
O414        H459   0.990       .  S
O416        H442   0.964       .  S
O417       Zr427   2.384       .  S
O418       Zr427   2.379   1_545  S
O418        H443   0.966       .  S
C419       C1561   1.489       .  S
C420       C1617   1.489       .  S
C421       C1742   1.493       .  S
O422        H458   0.990       .  S
O423        C425   1.282       .  A
O424        C425   1.288       .  A
C425       C2093   1.476       .  S
O426       Zr427   2.438       .  S
O426        H455   0.990       .  S
Zr427       O430   2.438       .  S
Zr427       O431   2.440       .  S
Zr427       O432   2.393       .  S
O428        C433   1.288       .  A
O429        H446   0.990       .  S
O429        H461   0.990       .  S
O430        H447   0.990       .  S
O431        H451   0.990       .  S
O431        H460   0.990       .  S
O432        C433   1.278   1_565  A
C433       C1589   1.491       .  S
O434        H453   0.991       .  S
O434        H457   0.990       .  S
O435        H449   0.990       .  S
O435        H456   0.990       .  S
O436        C440   1.288       .  A
O437        C440   1.284       .  A
O438        H448   0.990       .  S
O439        H452   0.990       .  S
C440       C1645   1.497       .  S
Zr463       O464   2.442       .  S
Zr463       O465   2.439       .  S
Zr463       O466   2.441       .  S
Zr463       O469   2.443       .  S
Zr463       O471   2.383       .  S
Zr463       O472   2.387       .  S
Zr463       O473   2.412       .  S
Zr463       O474   2.397       .  S
O464        H520   0.990       .  S
O464        H528   0.991       .  S
O465        C485   1.283       .  A
O466        C487   1.284       .  A
O467       Zr477   2.423   1_565  S
O467        C486   1.284       .  A
O468       Zr476   2.416       .  S
O468        C487   1.281       .  A
O469        C486   1.286       .  A
O470       Zr478   2.409       .  S
O470        C485   1.280   1_545  A
O471       Zr476   2.394       .  S
O471       Zr478   2.381   1_565  S
O472       Zr477   2.391   1_565  S
O472       Zr478   2.382   1_565  S
O472        H507   0.966       .  S
O473       Zr476   2.396       .  S
O473       Zr493   2.382       .  S
O473        H510   0.964       .  S
O474       Zr477   2.384   1_565  S
O474       Zr493   2.384       .  S
Zr475       O500   2.441       .  S
Zr475       O494   2.462       .  S
Zr475       O502   2.445       .  S
Zr475       O490   2.465       .  S
Zr475       O481   2.407       .  S
Zr475       O482   2.414       .  S
Zr475       O483   2.382   1_545  S
Zr475       O484   2.388       .  S
Zr476       O495   2.436       .  S
Zr476       O488   2.435   1_565  S
Zr476       O489   2.413   1_565  S
Zr476       O482   2.398   1_565  S
Zr476       O483   2.399       .  S
Zr477       O479   2.436   1_545  S
Zr477       O501   2.437       .  S
Zr477       O503   2.420       .  S
Zr477       O481   2.389       .  S
Zr477       O484   2.392       .  S
Zr478       O504   2.435       .  S
Zr478       O505   2.435       .  S
Zr478       O480   2.437       .  S
Zr478       O481   2.389       .  S
Zr478       O482   2.385       .  S
O479        H516   0.990       .  S
O480        H511   0.990       .  S
O480        H525   0.990       .  S
O482        H508   0.965       .  S
O483       Zr493   2.381       .  S
O484       Zr493   2.381   1_545  S
O484        H509   0.966       .  S
C485       C1602   1.481       .  S
C486       C1518   1.489       .  S
C487       C1882   1.470       .  S
O488        H524   0.990       .  S
O489        C491   1.282       .  A
O490        C491   1.289       .  A
C491       C1966   1.484       .  S
O492       Zr493   2.440       .  S
O492        H521   0.990       .  S
Zr493       O496   2.438       .  S
Zr493       O497   2.437       .  S
Zr493       O498   2.399       .  S
O494        C499   1.288       .  A
O495        H512   0.990       .  S
O495        H527   0.990       .  S
O496        H513   0.990       .  S
O497        H517   0.990       .  S
O497        H526   0.990       .  S
O498        C499   1.278   1_565  A
C499       C1574   1.486       .  S
O500        H519   0.990       .  S
O500        H523   0.990       .  S
O501        H515   0.990       .  S
O501        H522   0.990       .  S
O502        C506   1.286       .  A
O503        C506   1.283       .  A
O504        H514   0.990       .  S
O505        H518   0.990       .  S
C506       C1533   1.479       .  S
Zr529       O530   2.443       .  S
Zr529       O531   2.454       .  S
Zr529       O532   2.450       .  S
Zr529       O535   2.450       .  S
Zr529       O537   2.383       .  S
Zr529       O538   2.382       .  S
Zr529       O539   2.414       .  S
Zr529       O540   2.404       .  S
O530        H586   0.990       .  S
O530        H594   0.991       .  S
O531        C551   1.287       .  A
O532        C553   1.286       .  A
O533       Zr543   2.408       .  S
O533        C552   1.280       .  A
O534       Zr542   2.420       .  S
O534        C553   1.282       .  A
O535        C552   1.288       .  A
O536       Zr544   2.399       .  S
O536        C551   1.278       .  A
O537       Zr542   2.398       .  S
O537       Zr544   2.384       .  S
O538       Zr543   2.387       .  S
O538       Zr544   2.375       .  S
O538        H573   0.966       .  S
O539       Zr542   2.397       .  S
O539       Zr559   2.386       .  S
O539        H576   0.964       .  S
O540       Zr543   2.387       .  S
O540       Zr559   2.395       .  S
Zr541       O566   2.443       .  S
Zr541       O560   2.448       .  S
Zr541       O568   2.455       .  S
Zr541       O556   2.452       .  S
Zr541       O547   2.401       .  S
Zr541       O548   2.413       .  S
Zr541       O549   2.385       .  S
Zr541       O550   2.387       .  S
Zr542       O561   2.436       .  S
Zr542       O554   2.435       .  S
Zr542       O555   2.425       .  S
Zr542       O548   2.396       .  S
Zr542       O549   2.396       .  S
Zr543       O545   2.435       .  S
Zr543       O567   2.439       .  S
Zr543       O569   2.410       .  S
Zr543       O547   2.388       .  S
Zr543       O550   2.389       .  S
Zr544       O570   2.436       .  S
Zr544       O571   2.437       .  S
Zr544       O546   2.436       .  S
Zr544       O547   2.384       .  S
Zr544       O548   2.379       .  S
O545        H582   0.990       .  S
O546        H577   0.990       .  S
O546        H591   0.990       .  S
O548        H574   0.964       .  S
O549       Zr559   2.383       .  S
O550       Zr559   2.383       .  S
O550        H575   0.966       .  S
C551       C1393   1.484       .  S
C552       C1505   1.490       .  S
C553       C1477   1.481       .  S
O554        H590   0.990       .  S
O555        C557   1.285       .  A
O556        C557   1.288       .  A
C557       C1462   1.484       .  S
O558       Zr559   2.441       .  S
O558        H587   0.990       .  S
Zr559       O562   2.437       .  S
Zr559       O563   2.438       .  S
Zr559       O564   2.412       .  S
O560        C565   1.285       .  A
O561        H578   0.990       .  S
O561        H593   0.990       .  S
O562        H579   0.990       .  S
O563        H583   0.990       .  S
O563        H592   0.990       .  S
O564        C565   1.280       .  A
C565       C1434   1.483       .  S
O566        H585   0.990       .  S
O566        H589   0.991       .  S
O567        H581   0.990       .  S
O567        H588   0.990       .  S
O568        C572   1.287       .  A
O569        C572   1.281       .  A
O570        H580   0.990       .  S
O571        H584   0.990       .  S
C572       C2317   1.483       .  S
Zr595       O596   2.442       .  S
Zr595       O597   2.459       .  S
Zr595       O598   2.450       .  S
Zr595       O601   2.444       .  S
Zr595       O603   2.380       .  S
Zr595       O604   2.387       .  S
Zr595       O605   2.416       .  S
Zr595       O606   2.403       .  S
O596        H652   0.990       .  S
O596        H660   0.991       .  S
O597        C617   1.288   1_556  A
O598        C619   1.286       .  A
O599       Zr609   2.409       .  S
O599        C618   1.281       .  A
O600       Zr608   2.418       .  S
O600        C619   1.281       .  A
O601        C618   1.287       .  A
O602       Zr610   2.393       .  S
O602        C617   1.276   1_556  A
O603       Zr608   2.397       .  S
O603       Zr610   2.382       .  S
O604       Zr609   2.392       .  S
O604       Zr610   2.376       .  S
O604        H639   0.966       .  S
O605       Zr608   2.393       .  S
O605       Zr625   2.389       .  S
O605        H642   0.965       .  S
O606       Zr609   2.385       .  S
O606       Zr625   2.386       .  S
Zr607       O632   2.441       .  S
Zr607       O626   2.450       .  S
Zr607       O634   2.455       .  S
Zr607       O622   2.448       .  S
Zr607       O613   2.402       .  S
Zr607       O614   2.416       .  S
Zr607       O615   2.384       .  S
Zr607       O616   2.387       .  S
Zr608       O627   2.434       .  S
Zr608       O620   2.435       .  S
Zr608       O621   2.411       .  S
Zr608       O614   2.400       .  S
Zr608       O615   2.391       .  S
Zr609       O611   2.436       .  S
Zr609       O633   2.436       .  S
Zr609       O635   2.416       .  S
Zr609       O613   2.386       .  S
Zr609       O616   2.385       .  S
Zr610       O636   2.437       .  S
Zr610       O637   2.435       .  S
Zr610       O612   2.436       .  S
Zr610       O613   2.383       .  S
Zr610       O614   2.374       .  S
O611        H648   0.990       .  S
O612        H643   0.990       .  S
O612        H657   0.990       .  S
O614        H640   0.964       .  S
O615       Zr625   2.384       .  S
O616       Zr625   2.380       .  S
O616        H641   0.965       .  S
C617       C1421   1.487       .  S
C618       C1630   1.483       .  S
C619       C1365   1.476       .  S
O620        H656   0.990       .  S
O621        C623   1.282       .  A
O622        C623   1.287       .  A
C623       C1337   1.475       .  S
O624       Zr625   2.438       .  S
O624        H653   0.990       .  S
Zr625       O628   2.438       .  S
Zr625       O629   2.439       .  S
Zr625       O630   2.400       .  S
O626        C631   1.286       .  A
O627        H644   0.990       .  S
O627        H659   0.990       .  S
O628        H645   0.990       .  S
O629        H649   0.990       .  S
O629        H658   0.990       .  S
O630        C631   1.278       .  A
C631       C1406   1.480       .  S
O632        H651   0.990       .  S
O632        H655   0.990       .  S
O633        H647   0.990       .  S
O633        H654   0.990       .  S
O634        C638   1.287       .  A
O635        C638   1.283       .  A
O636        H646   0.990       .  S
O637        H650   0.990       .  S
C638       C2162   1.482       .  S
Zr661       O662   2.443       .  S
Zr661       O663   2.456       .  S
Zr661       O664   2.462       .  S
Zr661       O667   2.464       .  S
Zr661       O669   2.388       .  S
Zr661       O670   2.390       .  S
Zr661       O671   2.416       .  S
Zr661       O672   2.401       .  S
O662        H718   0.990       .  S
O662        H726   0.991       .  S
O663        C683   1.287       .  A
O664        C685   1.288       .  A
O665       Zr675   2.419       .  S
O665        C684   1.284       .  A
O666       Zr674   2.425       .  S
O666        C685   1.283       .  A
O667        C684   1.290       .  A
O668       Zr676   2.400       .  S
O668        C683   1.277       .  A
O669       Zr674   2.403       .  S
O669       Zr676   2.385       .  S
O670       Zr675   2.393       .  S
O670       Zr676   2.376       .  S
O670        H705   0.965       .  S
O671       Zr674   2.403       .  S
O671       Zr691   2.383       .  S
O671        H708   0.964       .  S
O672       Zr675   2.385       .  S
O672       Zr691   2.382       .  S
Zr673       O698   2.442       .  S
Zr673       O692   2.459       .  S
Zr673       O700   2.455       .  S
Zr673       O688   2.472       .  S
Zr673       O679   2.406       .  S
Zr673       O680   2.415       .  S
Zr673       O681   2.387       .  S
Zr673       O682   2.388       .  S
Zr674       O693   2.436       .  S
Zr674       O686   2.436       .  S
Zr674       O687   2.425       .  S
Zr674       O680   2.402       .  S
Zr674       O681   2.397       .  S
Zr675       O677   2.435       .  S
Zr675       O699   2.440       .  S
Zr675       O701   2.421       .  S
Zr675       O679   2.386       .  S
Zr675       O682   2.395       .  S
Zr676       O702   2.434       .  S
Zr676       O703   2.435       .  S
Zr676       O678   2.437       .  S
Zr676       O679   2.386       .  S
Zr676       O680   2.378       .  S
O677        H714   0.990       .  S
O678        H709   0.990       .  S
O678        H723   0.990       .  S
O680        H706   0.963       .  S
O681       Zr691   2.386       .  S
O682       Zr691   2.381       .  S
O682        H707   0.965       .  S
C683       C1225   1.487   1_554  S
C684       C1658   1.496       .  S
C685       C1322   1.484       .  S
O686        H722   0.990       .  S
O687        C689   1.284       .  A
O688        C689   1.289       .  A
C689       C1281   1.480       .  S
O690       Zr691   2.439       .  S
O690        H719   0.990       .  S
Zr691       O694   2.438       .  S
Zr691       O695   2.439       .  S
Zr691       O696   2.396       .  S
O692        C697   1.287       .  A
O693        H710   0.990       .  S
O693        H725   0.989       .  S
O694        H711   0.990       .  S
O695        H715   0.990       .  S
O695        H724   0.990       .  S
O696        C697   1.277       .  A
C697       C1266   1.474       .  S
O698        H717   0.991       .  S
O698        H721   0.990       .  S
O699        H713   0.990       .  S
O699        H720   0.990       .  S
O700        C704   1.288       .  A
O701        C704   1.284       .  A
O702        H712   0.990       .  S
O703        H716   0.990       .  S
C704       C2289   1.492       .  S
Zr727       O728   2.441       .  S
Zr727       O729   2.447       .  S
Zr727       O730   2.449       .  S
Zr727       O733   2.432       .  S
Zr727       O735   2.380       .  S
Zr727       O736   2.388       .  S
Zr727       O737   2.411       .  S
Zr727       O738   2.401       .  S
O728        H784   0.990       .  S
O728        H792   0.990       .  S
O729        C749   1.285       .  A
O730        C751   1.286       .  A
O731       Zr741   2.426       .  S
O731        C750   1.285       .  A
O732       Zr740   2.411       .  S
O732        C751   1.281       .  A
O733        C750   1.284       .  A
O734       Zr742   2.410       .  S
O734        C749   1.280       .  A
O735       Zr740   2.397       .  S
O735       Zr742   2.381       .  S
O736       Zr741   2.397       .  S
O736       Zr742   2.378       .  S
O736        H771   0.966       .  S
O737       Zr740   2.397       .  S
O737       Zr757   2.389       .  S
O737        H774   0.965       .  S
O738       Zr741   2.383       .  S
O738       Zr757   2.383       .  S
Zr739       O764   2.442       .  S
Zr739       O758   2.447       .  S
Zr739       O766   2.442       .  S
Zr739       O754   2.464       .  S
Zr739       O745   2.406       .  S
Zr739       O746   2.411       .  S
Zr739       O747   2.381       .  S
Zr739       O748   2.390       .  S
Zr740       O759   2.436       .  S
Zr740       O752   2.435       .  S
Zr740       O753   2.410       .  S
Zr740       O746   2.400       .  S
Zr740       O747   2.393       .  S
Zr741       O743   2.437       .  S
Zr741       O765   2.436       .  S
Zr741       O767   2.431       .  S
Zr741       O745   2.388       .  S
Zr741       O748   2.393       .  S
Zr742       O768   2.435       .  S
Zr742       O769   2.435       .  S
Zr742       O744   2.437       .  S
Zr742       O745   2.386       .  S
Zr742       O746   2.387       .  S
O743        H780   0.990       .  S
O744        H775   0.990       .  S
O744        H789   0.990       .  S
O746        H772   0.965       .  S
O747       Zr757   2.383       .  S
O748       Zr757   2.381       .  S
O748        H773   0.966       .  S
C749       C1253   1.485       .  S
C750       C1546   1.477       .  S
C751       C1197   1.481       .  S
O752        H788   0.990       .  S
O753        C755   1.281       .  A
O754        C755   1.288       .  A
C755       C1169   1.480       .  S
O756       Zr757   2.440       .  S
O756        H785   0.990       .  S
Zr757       O760   2.437       .  S
Zr757       O761   2.440       .  S
Zr757       O762   2.396       .  S
O758        C763   1.286       .  A
O759        H776   0.990       .  S
O759        H791   0.990       .  S
O760        H777   0.990       .  S
O761        H781   0.990       .  S
O761        H790   0.990       .  S
O762        C763   1.277       .  A
C763       C1238   1.481       .  S
O764        H783   0.990       .  S
O764        H787   0.990       .  S
O765        H779   0.990       .  S
O765        H786   0.990       .  S
O766        C770   1.286       .  A
O767        C770   1.285       .  A
O768        H778   0.990       .  S
O769        H782   0.990       .  S
C770       C2121   1.486       .  S
Zr793       O794   2.441       .  S
Zr793       O795   2.465       .  S
Zr793       O796   2.463       .  S
Zr793       O799   2.461       .  S
Zr793       O801   2.382       .  S
Zr793       O802   2.391       .  S
Zr793       O803   2.417   1_554  S
Zr793       O804   2.404       .  S
O794        H850   0.990       .  S
O794        H858   0.991       .  S
O795        C815   1.289       .  A
O796        C817   1.289       .  A
O797       Zr807   2.437       .  S
O797        C816   1.286       .  A
O798       Zr806   2.413   1_554  S
O798        C817   1.280       .  A
O799        C816   1.290       .  A
O800       Zr808   2.383       .  S
O800        C815   1.273       .  A
O801       Zr806   2.401   1_554  S
O801       Zr808   2.386       .  S
O802       Zr807   2.395       .  S
O802       Zr808   2.379       .  S
O802        H837   0.966       .  S
O803       Zr806   2.397       .  S
O803       Zr823   2.390       .  S
O803        H840   0.965       .  S
O804       Zr807   2.382       .  S
O804       Zr823   2.383   1_554  S
Zr805       O830   2.443       .  S
Zr805       O824   2.454       .  S
Zr805       O832   2.453       .  S
Zr805       O820   2.457       .  S
Zr805       O811   2.408   1_556  S
Zr805       O812   2.412       .  S
Zr805       O813   2.382       .  S
Zr805       O814   2.391       .  S
Zr806       O825   2.436       .  S
Zr806       O818   2.435   1_556  S
Zr806       O819   2.424       .  S
Zr806       O812   2.392       .  S
Zr806       O813   2.390       .  S
Zr807       O809   2.436   1_554  S
Zr807       O831   2.440       .  S
Zr807       O833   2.430   1_554  S
Zr807       O811   2.394       .  S
Zr807       O814   2.399   1_554  S
Zr808       O834   2.435       .  S
Zr808       O835   2.437       .  S
Zr808       O810   2.437       .  S
Zr808       O811   2.386       .  S
Zr808       O812   2.367   1_554  S
O809        H846   0.990       .  S
O810        H841   0.990       .  S
O810        H855   0.990       .  S
O812        H838   0.962       .  S
O813       Zr823   2.383       .  S
O814       Zr823   2.384       .  S
O814        H839   0.966       .  S
C815       C1141   1.490       .  S
C816       C2065   1.497       .  S
C817       C1309   1.498       .  S
O818        H854   0.990       .  S
O819        C821   1.283       .  A
O820        C821   1.289       .  A
C821       C1378   1.476       .  S
O822       Zr823   2.439       .  S
O822        H851   0.990       .  S
Zr823       O826   2.437       .  S
Zr823       O827   2.440       .  S
Zr823       O828   2.401       .  S
O824        C829   1.287       .  A
O825        H842   0.990       .  S
O825        H857   0.990       .  S
O826        H843   0.990       .  S
O827        H847   0.990       .  S
O827        H856   0.990       .  S
O828        C829   1.278       .  A
C829       C1126   1.485       .  S
O830        H849   0.990       .  S
O830        H853   0.991       .  S
O831        H845   0.990       .  S
O831        H852   0.990       .  S
O832        C836   1.287       .  A
O833        C836   1.285       .  A
O834        H844   0.990       .  S
O835        H848   0.990       .  S
C836       C1714   1.487       .  S
Zr859       O860   2.441       .  S
Zr859       O861   2.457       .  S
Zr859       O862   2.460       .  S
Zr859       O865   2.453       .  S
Zr859       O867   2.380       .  S
Zr859       O868   2.389       .  S
Zr859       O869   2.415       .  S
Zr859       O870   2.404       .  S
O860        H916   0.990       .  S
O860        H924   0.990       .  S
O861        C881   1.286       .  A
O862        C883   1.288       .  A
O863       Zr873   2.431       .  S
O863        C882   1.286       .  A
O864       Zr872   2.418       .  S
O864        C883   1.283       .  A
O865        C882   1.288       .  A
O866       Zr874   2.398       .  S
O866        C881   1.278       .  A
O867       Zr872   2.399       .  S
O867       Zr874   2.384       .  S
O868       Zr873   2.396       .  S
O868       Zr874   2.377       .  S
O868        H903   0.966       .  S
O869       Zr872   2.401       .  S
O869       Zr889   2.385       .  S
O869        H906   0.964       .  S
O870       Zr873   2.389       .  S
O870       Zr889   2.390       .  S
Zr871       O896   2.442       .  S
Zr871       O890   2.445       .  S
Zr871       O898   2.433       .  S
Zr871       O886   2.452       .  S
Zr871       O877   2.402       .  S
Zr871       O878   2.407       .  S
Zr871       O879   2.378       .  S
Zr871       O880   2.386       .  S
Zr872       O891   2.436       .  S
Zr872       O884   2.436       .  S
Zr872       O885   2.421       .  S
Zr872       O878   2.402       .  S
Zr872       O879   2.397       .  S
Zr873       O875   2.435       .  S
Zr873       O897   2.441       .  S
Zr873       O899   2.432       .  S
Zr873       O877   2.390       .  S
Zr873       O880   2.392       .  S
Zr874       O900   2.435       .  S
Zr874       O901   2.436       .  S
Zr874       O876   2.437       .  S
Zr874       O877   2.386       .  S
Zr874       O878   2.383       .  S
O875        H912   0.990       .  S
O876        H907   0.990       .  S
O876        H921   0.990       .  S
O878        H904   0.964       .  S
O879       Zr889   2.382       .  S
O880       Zr889   2.375       .  S
O880        H905   0.966       .  S
C881       C1113   1.490       .  S
C882       C1925   1.497       .  S
C883       C1210   1.484       .  S
O884        H920   0.990       .  S
O885        C887   1.281       .  A
O886        C887   1.285       .  A
C887       C1490   1.467       .  S
O888       Zr889   2.438       .  S
O888        H917   0.990       .  S
Zr889       O892   2.439       .  S
Zr889       O893   2.438       .  S
Zr889       O894   2.410       .  S
O890        C895   1.285       .  A
O891        H908   0.990       .  S
O891        H923   0.990       .  S
O892        H909   0.990       .  S
O893        H913   0.990       .  S
O893        H922   0.990       .  S
O894        C895   1.279       .  A
C895       C1154   1.480       .  S
O896        H915   0.991       .  S
O896        H919   0.990       .  S
O897        H911   0.990       .  S
O897        H918   0.990       .  S
O898        C902   1.285       .  A
O899        C902   1.284       .  A
O900        H910   0.990       .  S
O901        H914   0.990       .  S
C902       C1854   1.489       .  S
Zr925       O926   2.442       .  S
Zr925       O927   2.459       .  S
Zr925       O928   2.461   1_455  S
Zr925       O931   2.449       .  S
Zr925       O933   2.381   1_455  S
Zr925       O934   2.387       .  S
Zr925       O935   2.416   1_455  S
Zr925       O936   2.405       .  S
O926        H982   0.990   1_455  S
O926        H990   0.990   1_455  S
O927        C947   1.287       .  A
O928        C949   1.288       .  A
O929       Zr939   2.423       .  S
O929        C948   1.283       .  A
O930       Zr938   2.415       .  S
O930        C949   1.282       .  A
O931        C948   1.288       .  A
O932       Zr940   2.390       .  S
O932        C947   1.275       .  A
O933       Zr938   2.394       .  S
O933       Zr940   2.383   1_655  S
O934       Zr939   2.395       .  S
O934       Zr940   2.378       .  S
O934        H969   0.966       .  S
O935       Zr938   2.399       .  S
O935       Zr955   2.392   1_655  S
O935        H972   0.965       .  S
O936       Zr939   2.386       .  S
O936       Zr955   2.386       .  S
Zr937       O962   2.440       .  S
Zr937       O956   2.442       .  S
Zr937       O964   2.448       .  S
Zr937       O952   2.462   1_455  S
Zr937       O943   2.399       .  S
Zr937       O944   2.409   1_455  S
Zr937       O945   2.381   1_455  S
Zr937       O946   2.389       .  S
Zr938       O957   2.436       .  S
Zr938       O950   2.435       .  S
Zr938       O951   2.413       .  S
Zr938       O944   2.398       .  S
Zr938       O945   2.393       .  S
Zr939       O941   2.436       .  S
Zr939       O963   2.440       .  S
Zr939       O965   2.419       .  S
Zr939       O943   2.387       .  S
Zr939       O946   2.395       .  S
Zr940       O966   2.435       .  S
Zr940       O967   2.435       .  S
Zr940       O942   2.437   1_455  S
Zr940       O943   2.381       .  S
Zr940       O944   2.380   1_455  S
O941        H978   0.990       .  S
O942        H973   0.990       .  S
O942        H987   0.990       .  S
O944        H970   0.965       .  S
O945       Zr955   2.382   1_655  S
O946       Zr955   2.380       .  S
O946        H971   0.966       .  S
C947       C1070   1.487   1_455  S
C948       C1813   1.495       .  S
C949       C1449   1.491       .  S
O950        H986   0.990       .  S
O951        C953   1.281       .  A
O952        C953   1.289       .  A
C953       C1294   1.487       .  S
O954       Zr955   2.439       .  S
O954        H983   0.990       .  S
Zr955       O958   2.437   1_455  S
Zr955       O959   2.440       .  S
Zr955       O960   2.407       .  S
O956        C961   1.284       .  A
O957        H974   0.990       .  S
O957        H989   0.990       .  S
O958        H975   0.990       .  S
O959        H979   0.990       .  S
O959        H988   0.990       .  S
O960        C961   1.280       .  A
C961       C1098   1.486       .  S
O962        H981   0.990       .  S
O962        H985   0.990   1_455  S
O963        H977   0.990       .  S
O963        H984   0.990       .  S
O964        C968   1.287       .  A
O965        C968   1.283       .  A
O966        H976   0.990       .  S
O967        H980   0.990       .  S
C968       C2050   1.490       .  S
Zr991       O992   2.442   1_655  S
Zr991       O993   2.439       .  S
Zr991       O994   2.447       .  S
Zr991       O997   2.441   1_655  S
Zr991       O999   2.380       .  S
Zr991      O1000   2.386   1_655  S
Zr991      O1001   2.409       .  S
Zr991      O1002   2.401   1_655  S
O992       H1048   0.990   1_455  S
O992       H1056   0.990   1_455  S
O993       C1013   1.283       .  A
O994       C1015   1.285       .  A
O995      Zr1005   2.413       .  S
O995       C1014   1.282       .  A
O996      Zr1004   2.409       .  S
O996       C1015   1.281       .  A
O997       C1014   1.287       .  A
O998      Zr1006   2.411       .  S
O998       C1013   1.280       .  A
O999      Zr1004   2.395       .  S
O999      Zr1006   2.380       .  S
O1000     Zr1005   2.393       .  S
O1000     Zr1006   2.373   1_455  S
O1000      H1035   0.967       .  S
O1001     Zr1004   2.399       .  S
O1001     Zr1021   2.382       .  S
O1001      H1038   0.965       .  S
O1002     Zr1005   2.388       .  S
O1002     Zr1021   2.385   1_455  S
Zr1003     O1028   2.441   1_655  S
Zr1003     O1022   2.455       .  S
Zr1003     O1030   2.445   1_655  S
Zr1003     O1018   2.466       .  S
Zr1003     O1009   2.406   1_655  S
Zr1003     O1010   2.414       .  S
Zr1003     O1011   2.379       .  S
Zr1003     O1012   2.388   1_655  S
Zr1004     O1023   2.437       .  S
Zr1004     O1016   2.434       .  S
Zr1004     O1017   2.414       .  S
Zr1004     O1010   2.396       .  S
Zr1004     O1011   2.393       .  S
Zr1005     O1007   2.435       .  S
Zr1005     O1029   2.438       .  S
Zr1005     O1031   2.420       .  S
Zr1005     O1009   2.384       .  S
Zr1005     O1012   2.389       .  S
Zr1006     O1032   2.434   1_655  S
Zr1006     O1033   2.434   1_655  S
Zr1006     O1008   2.436       .  S
Zr1006     O1009   2.386   1_655  S
Zr1006     O1010   2.389       .  S
O1007      H1044   0.990       .  S
O1008      H1039   0.990       .  S
O1008      H1053   0.990       .  S
O1010      H1036   0.964       .  S
O1011     Zr1021   2.387       .  S
O1012     Zr1021   2.383   1_455  S
O1012      H1037   0.966       .  S
C1013      C1085   1.483       .  S
C1014      C1686   1.484       .  S
C1015      C1350   1.480       .  S
O1016      H1052   0.990       .  S
O1017      C1019   1.282       .  A
O1018      C1019   1.289       .  A
C1019      C1182   1.493       .  S
O1020     Zr1021   2.440       .  S
O1020      H1049   0.990       .  S
Zr1021     O1024   2.438       .  S
Zr1021     O1025   2.439   1_655  S
Zr1021     O1026   2.398       .  S
O1022      C1027   1.287       .  A
O1023      H1040   0.990       .  S
O1023      H1055   0.990       .  S
O1024      H1041   0.990       .  S
O1025      H1045   0.990       .  S
O1025      H1054   0.990       .  S
O1026      C1027   1.278       .  A
C1027      C1057   1.483       .  S
O1028      H1047   0.990   1_455  S
O1028      H1051   0.990   1_455  S
O1029      H1043   0.990       .  S
O1029      H1050   0.990       .  S
O1030      C1034   1.287       .  A
O1031      C1034   1.282       .  A
O1032      H1042   0.990       .  S
O1033      H1046   0.990       .  S
C1034      C1897   1.489       .  S
C1057      C1058   1.417   1_655  A
C1057      C1062   1.404       .  A
C1058      C1059   1.403       .  A
C1058      N1063   1.438       .  S
C1059      C1060   1.399   1_455  A
C1059      H1064   1.084       .  S
C1060      C1065   1.482       .  S
C1060      C1061   1.411       .  A
C1061      C1062   1.406       .  A
C1061      N1066   1.438       .  S
C1062      H1067   1.084       .  S
N1063      H1083   1.046       .  S
N1063      H1084   1.046       .  S
C1065      C1068   1.397   1_655  A
C1065      C1072   1.411       .  A
N1066      H1081   1.046       .  S
N1066      H1082   1.046       .  S
C1068      C1069   1.401       .  A
C1068      H1073   1.084       .  S
C1069      C1070   1.420   1_455  A
C1069      N1074   1.438       .  S
C1070      C1071   1.405       .  A
C1071      C1072   1.408       .  A
C1071      H1075   1.084       .  S
C1072      N1076   1.437       .  S
N1074      H1077   1.046       .  S
N1074      H1078   1.046       .  S
N1076      H1079   1.046       .  S
N1076      H1080   1.046       .  S
C1085      C1086   1.414       .  A
C1085      C1090   1.406   1_655  A
C1086      C1087   1.408       .  A
C1086      N1091   1.438       .  S
C1087      C1088   1.404   1_655  A
C1087      H1092   1.084       .  S
C1088      C1093   1.482   1_556  S
C1088      C1089   1.408       .  A
C1089      C1090   1.402       .  A
C1089      N1094   1.438       .  S
C1090      H1095   1.084       .  S
N1091      H1111   1.046       .  S
N1091      H1112   1.046       .  S
C1093      C1096   1.402   1_455  A
C1093      C1100   1.407       .  A
N1094      H1109   1.046       .  S
N1094      H1110   1.046       .  S
C1096      C1097   1.406       .  A
C1096      H1101   1.084       .  S
C1097      C1098   1.416   1_655  A
C1097      N1102   1.438       .  S
C1098      C1099   1.408       .  A
C1099      C1100   1.403       .  A
C1099      H1103   1.084       .  S
C1100      N1104   1.438       .  S
N1102      H1105   1.046       .  S
N1102      H1106   1.045       .  S
N1104      H1107   1.046       .  S
N1104      H1108   1.046       .  S
C1113      C1114   1.416       .  A
C1113      C1118   1.408       .  A
C1114      C1115   1.411       .  A
C1114      N1119   1.438       .  S
C1115      C1116   1.406       .  A
C1115      H1120   1.084       .  S
C1116      C1121   1.486       .  S
C1116      C1117   1.407       .  A
C1117      C1118   1.401       .  A
C1117      N1122   1.439       .  S
C1118      H1123   1.083       .  S
N1119      H1139   1.046       .  S
N1119      H1140   1.046       .  S
C1121      C1124   1.405       .  A
C1121      C1128   1.408       .  A
N1122      H1137   1.045       .  S
N1122      H1138   1.046       .  S
C1124      C1125   1.407       .  A
C1124      H1129   1.084       .  S
C1125      C1126   1.413       .  A
C1125      N1130   1.438       .  S
C1126      C1127   1.408       .  A
C1127      C1128   1.405       .  A
C1127      H1131   1.084       .  S
C1128      N1132   1.438       .  S
N1130      H1133   1.046       .  S
N1130      H1134   1.046       .  S
N1132      H1135   1.046       .  S
N1132      H1136   1.046       .  S
C1141      C1142   1.421       .  A
C1141      C1146   1.405       .  A
C1142      C1143   1.400       .  A
C1142      N1147   1.434       .  S
C1143      C1144   1.398       .  A
C1143      H1148   1.084       .  S
C1144      C1149   1.483       .  S
C1144      C1145   1.412       .  A
C1145      C1146   1.407       .  A
C1145      N1150   1.437       .  S
C1146      H1151   1.083       .  S
N1147      H1167   1.046       .  S
N1147      H1168   1.046       .  S
C1149      C1152   1.401       .  A
C1149      C1156   1.412       .  A
N1150      H1165   1.046       .  S
N1150      H1166   1.046       .  S
C1152      C1153   1.402       .  A
C1152      H1157   1.084       .  S
C1153      C1154   1.414       .  A
C1153      N1158   1.438       .  S
C1154      C1155   1.404       .  A
C1155      C1156   1.407       .  A
C1155      H1159   1.084       .  S
C1156      N1160   1.438       .  S
N1158      H1161   1.046       .  S
N1158      H1162   1.046       .  S
N1160      H1163   1.046       .  S
N1160      H1164   1.046       .  S
C1169      C1170   1.410       .  A
C1169      C1174   1.406       .  A
C1170      C1171   1.410       .  A
C1170      N1175   1.437       .  S
C1171      C1172   1.406       .  A
C1171      H1176   1.084       .  S
C1172      C1177   1.486       .  S
C1172      C1173   1.409       .  A
C1173      C1174   1.402       .  A
C1173      N1178   1.438       .  S
C1174      H1179   1.084       .  S
N1175      H1195   1.046       .  S
N1175      H1196   1.046       .  S
C1177      C1180   1.404       .  A
C1177      C1184   1.407       .  A
N1178      H1193   1.046       .  S
N1178      H1194   1.046       .  S
C1180      C1181   1.408       .  A
C1180      H1185   1.084       .  S
C1181      C1182   1.415       .  A
C1181      N1186   1.437       .  S
C1182      C1183   1.411       .  A
C1183      C1184   1.404       .  A
C1183      H1187   1.083       .  S
C1184      N1188   1.438       .  S
N1186      H1189   1.046       .  S
N1186      H1190   1.046       .  S
N1188      H1191   1.046       .  S
N1188      H1192   1.046       .  S
C1197      C1198   1.413       .  A
C1197      C1202   1.407       .  A
C1198      C1199   1.409       .  A
C1198      N1203   1.437       .  S
C1199      C1200   1.404       .  A
C1199      H1204   1.084       .  S
C1200      C1205   1.477       .  S
C1200      C1201   1.405       .  A
C1201      C1202   1.399       .  A
C1201      N1206   1.438       .  S
C1202      H1207   1.084       .  S
N1203      H1223   1.046       .  S
N1203      H1224   1.046       .  S
C1205      C1208   1.403       .  A
C1205      C1212   1.405       .  A
N1206      H1221   1.046       .  S
N1206      H1222   1.046       .  S
C1208      C1209   1.407       .  A
C1208      H1213   1.084       .  S
C1209      C1210   1.413       .  A
C1209      N1214   1.437       .  S
C1210      C1211   1.409       .  A
C1211      C1212   1.402       .  A
C1211      H1215   1.083       .  S
C1212      N1216   1.438       .  S
N1214      H1217   1.046       .  S
N1214      H1218   1.046       .  S
N1216      H1219   1.046       .  S
N1216      H1220   1.046       .  S
C1225      C1226   1.419       .  A
C1225      C1230   1.405       .  A
C1226      C1227   1.402       .  A
C1226      N1231   1.438       .  S
C1227      C1228   1.398       .  A
C1227      H1232   1.084       .  S
C1228      C1233   1.483       .  S
C1228      C1229   1.411       .  A
C1229      C1230   1.408       .  A
C1229      N1234   1.437       .  S
C1230      H1235   1.083       .  S
N1231      H1251   1.046       .  S
N1231      H1252   1.046       .  S
C1233      C1236   1.399       .  A
C1233      C1240   1.412       .  A
N1234      H1249   1.046       .  S
N1234      H1250   1.046       .  S
C1236      C1237   1.398       .  A
C1236      H1241   1.084       .  S
C1237      C1238   1.414       .  A
C1237      N1242   1.433       .  S
C1238      C1239   1.404       .  A
C1239      C1240   1.407       .  A
C1239      H1243   1.084       .  S
C1240      N1244   1.437       .  S
N1242      H1245   1.046       .  S
N1242      H1246   1.046       .  S
N1244      H1247   1.046       .  S
N1244      H1248   1.046       .  S
C1253      C1254   1.416       .  A
C1253      C1258   1.407       .  A
C1254      C1255   1.411       .  A
C1254      N1259   1.438       .  S
C1255      C1256   1.403       .  A
C1255      H1260   1.084       .  S
C1256      C1261   1.480       .  S
C1256      C1257   1.405       .  A
C1257      C1258   1.402       .  A
C1257      N1262   1.438       .  S
C1258      H1263   1.084       .  S
N1259      H1279   1.045       .  S
N1259      H1280   1.046       .  S
C1261      C1264   1.400       .  A
C1261      C1268   1.411       .  A
N1262      H1277   1.046       .  S
N1262      H1278   1.046       .  S
C1264      C1265   1.403       .  A
C1264      H1269   1.084       .  S
C1265      C1266   1.412       .  A
C1265      N1270   1.438       .  S
C1266      C1267   1.403       .  A
C1267      C1268   1.409       .  A
C1267      H1271   1.084       .  S
C1268      N1272   1.437       .  S
N1270      H1273   1.046       .  S
N1270      H1274   1.046       .  S
N1272      H1275   1.046       .  S
N1272      H1276   1.045       .  S
C1281      C1282   1.414       .  A
C1281      C1286   1.404       .  A
C1282      C1283   1.402       .  A
C1282      N1287   1.438       .  S
C1283      C1284   1.397       .  A
C1283      H1288   1.084       .  S
C1284      C1289   1.481       .  S
C1284      C1285   1.413       .  A
C1285      C1286   1.413       .  A
C1285      N1290   1.437       .  S
C1286      H1291   1.083       .  S
N1287      H1307   1.045       .  S
N1287      H1308   1.046       .  S
C1289      C1292   1.400       .  A
C1289      C1296   1.409       .  A
N1290      H1305   1.046       .  S
N1290      H1306   1.045       .  S
C1292      C1293   1.405       .  A
C1292      H1297   1.084       .  S
C1293      C1294   1.417       .  A
C1293      N1298   1.438       .  S
C1294      C1295   1.407       .  A
C1295      C1296   1.408       .  A
C1295      H1299   1.083       .  S
C1296      N1300   1.437       .  S
N1298      H1301   1.046       .  S
N1298      H1302   1.046       .  S
N1300      H1303   1.046       .  S
N1300      H1304   1.045       .  S
C1309      C1310   1.425       .  A
C1309      C1314   1.410       .  A
C1310      C1311   1.406       .  A
C1310      N1315   1.438       .  S
C1311      C1312   1.397       .  A
C1311      H1316   1.084       .  S
C1312      C1317   1.481       .  S
C1312      C1313   1.407       .  A
C1313      C1314   1.407       .  A
C1313      N1318   1.437       .  S
C1314      H1319   1.083       .  S
N1315      H1335   1.046       .  S
N1315      H1336   1.046       .  S
C1317      C1320   1.398       .  A
C1317      C1324   1.410       .  A
N1318      H1333   1.046       .  S
N1318      H1334   1.046       .  S
C1320      C1321   1.404       .  A
C1320      H1325   1.084       .  S
C1321      C1322   1.417       .  A
C1321      N1326   1.438       .  S
C1322      C1323   1.405       .  A
C1323      C1324   1.408       .  A
C1323      H1327   1.084       .  S
C1324      N1328   1.437       .  S
N1326      H1329   1.046       .  S
N1326      H1330   1.046       .  S
N1328      H1331   1.046   1_554  S
N1328      H1332   1.046       .  S
C1337      C1338   1.411       .  A
C1337      C1342   1.407       .  A
C1338      C1339   1.404       .  A
C1338      N1343   1.438       .  S
C1339      C1340   1.403       .  A
C1339      H1344   1.084       .  S
C1340      C1345   1.474       .  S
C1340      C1341   1.406       .  A
C1341      C1342   1.400       .  A
C1341      N1346   1.438       .  S
C1342      H1347   1.084       .  S
N1343      H1363   1.046       .  S
N1343      H1364   1.046       .  S
C1345      C1348   1.402       .  A
C1345      C1352   1.406       .  A
N1346      H1361   1.046       .  S
N1346      H1362   1.046       .  S
C1348      C1349   1.406       .  A
C1348      H1353   1.084       .  S
C1349      C1350   1.414       .  A
C1349      N1354   1.437       .  S
C1350      C1351   1.407       .  A
C1351      C1352   1.398       .  A
C1351      H1355   1.083       .  S
C1352      N1356   1.439       .  S
N1354      H1357   1.045       .  S
N1354      H1358   1.046       .  S
N1356      H1359   1.046       .  S
N1356      H1360   1.046       .  S
C1365      C1366   1.410       .  A
C1365      C1370   1.402       .  A
C1366      C1367   1.407       .  A
C1366      N1371   1.438       .  S
C1367      C1368   1.407       .  A
C1367      H1372   1.083       .  S
C1368      C1373   1.491       .  S
C1368      C1369   1.413       .  A
C1369      C1370   1.403       .  A
C1369      N1374   1.438       .  S
C1370      H1375   1.084       .  S
N1371      H1391   1.046       .  S
N1371      H1392   1.046       .  S
C1373      C1376   1.403       .  A
C1373      C1380   1.414       .  A
N1374      H1389   1.046       .  S
N1374      H1390   1.046       .  S
C1376      C1377   1.403       .  A
C1376      H1381   1.083       .  S
C1377      C1378   1.413       .  A
C1377      N1382   1.438       .  S
C1378      C1379   1.403       .  A
C1379      C1380   1.407       .  A
C1379      H1383   1.084       .  S
C1380      N1384   1.438       .  S
N1382      H1385   1.046       .  S
N1382      H1386   1.045       .  S
N1384      H1387   1.046       .  S
N1384      H1388   1.045       .  S
C1393      C1394   1.418       .  A
C1393      C1398   1.404       .  A
C1394      C1395   1.403       .  A
C1394      N1399   1.438       .  S
C1395      C1396   1.398       .  A
C1395      H1400   1.084       .  S
C1396      C1401   1.480       .  S
C1396      C1397   1.411       .  A
C1397      C1398   1.406       .  A
C1397      N1402   1.438       .  S
C1398      H1403   1.083       .  S
N1399      H1419   1.046       .  S
N1399      H1420   1.046       .  S
C1401      C1404   1.398       .  A
C1401      C1408   1.412       .  A
N1402      H1417   1.046       .  S
N1402      H1418   1.046       .  S
C1404      C1405   1.398       .  A
C1404      H1409   1.084       .  S
C1405      C1406   1.414       .  A
C1405      N1410   1.433       .  S
C1406      C1407   1.404       .  A
C1407      C1408   1.407       .  A
C1407      H1411   1.084       .  S
C1408      N1412   1.437       .  S
N1410      H1413   1.046       .  S
N1410      H1414   1.046       .  S
N1412      H1415   1.046       .  S
N1412      H1416   1.046       .  S
C1421      C1422   1.417       .  A
C1421      C1426   1.405       .  A
C1422      C1423   1.400       .  A
C1422      N1427   1.433       .  S
C1423      C1424   1.398       .  A
C1423      H1428   1.084       .  S
C1424      C1429   1.483       .  S
C1424      C1425   1.412       .  A
C1425      C1426   1.409       .  A
C1425      N1430   1.437       .  S
C1426      H1431   1.083       .  S
N1427      H1447   1.046       .  S
N1427      H1448   1.046       .  S
C1429      C1432   1.400       .  A
C1429      C1436   1.411       .  A
N1430      H1445   1.045       .  S
N1430      H1446   1.046       .  S
C1432      C1433   1.404       .  A
C1432      H1437   1.084       .  S
C1433      C1434   1.416       .  A
C1433      N1438   1.438       .  S
C1434      C1435   1.405       .  A
C1435      C1436   1.407       .  A
C1435      H1439   1.084       .  S
C1436      N1440   1.438       .  S
N1438      H1441   1.046       .  S
N1438      H1442   1.046       .  S
N1440      H1443   1.046       .  S
N1440      H1444   1.045       .  S
C1449      C1450   1.416       .  A
C1449      C1454   1.410       .  A
C1450      C1451   1.408       .  A
C1450      N1455   1.437       .  S
C1451      C1452   1.402       .  A
C1451      H1456   1.084       .  S
C1452      C1457   1.480       .  S
C1452      C1453   1.406       .  A
C1453      C1454   1.403       .  A
C1453      N1458   1.438       .  S
C1454      H1459   1.083       .  S
N1455      H1475   1.046       .  S
N1455      H1476   1.046       .  S
C1457      C1460   1.404       .  A
C1457      C1464   1.406       .  A
N1458      H1473   1.046       .  S
N1458      H1474   1.046       .  S
C1460      C1461   1.409       .  A
C1460      H1465   1.084       .  S
C1461      C1462   1.414       .  A
C1461      N1466   1.437       .  S
C1462      C1463   1.408       .  A
C1463      C1464   1.402       .  A
C1463      H1467   1.083       .  S
C1464      N1468   1.438       .  S
N1466      H1469   1.046       .  S
N1466      H1470   1.046       .  S
N1468      H1471   1.046       .  S
N1468      H1472   1.046       .  S
C1477      C1478   1.412       .  A
C1477      C1482   1.405       .  A
C1478      C1479   1.405       .  A
C1478      N1483   1.438       .  S
C1479      C1480   1.403       .  A
C1479      H1484   1.084       .  S
C1480      C1485   1.485       .  S
C1480      C1481   1.411       .  A
C1481      C1482   1.406       .  A
C1481      N1486   1.438       .  S
C1482      H1487   1.084       .  S
N1483      H1503   1.046       .  S
N1483      H1504   1.046       .  S
C1485      C1488   1.403       .  A
C1485      C1492   1.414       .  A
N1486      H1501   1.046       .  S
N1486      H1502   1.046       .  S
C1488      C1489   1.403       .  A
C1488      H1493   1.084       .  S
C1489      C1490   1.409       .  A
C1489      N1494   1.438       .  S
C1490      C1491   1.399       .  A
C1491      C1492   1.407       .  A
C1491      H1495   1.084       .  S
C1492      N1496   1.438       .  S
N1494      H1497   1.046       .  S
N1494      H1498   1.046       .  S
N1496      H1499   1.046       .  S
N1496      H1500   1.046       .  S
C1505      C1506   1.420       .  A
C1505      C1510   1.407       .  A
C1506      C1507   1.402       .  A
C1506      N1511   1.438       .  S
C1507      C1508   1.399       .  A
C1507      H1512   1.084       .  S
C1508      C1513   1.486       .  S
C1508      C1509   1.411       .  A
C1509      C1510   1.407       .  A
C1509      N1514   1.438       .  S
C1510      H1515   1.083       .  S
N1511      H1531   1.045       .  S
N1511      H1532   1.046       .  S
C1513      C1516   1.402       .  A
C1513      C1520   1.410       .  A
N1514      H1529   1.046       .  S
N1514      H1530   1.045       .  S
C1516      C1517   1.405       .  A
C1516      H1521   1.084       .  S
C1517      C1518   1.418       .  A
C1517      N1522   1.437       .  S
C1518      C1519   1.407       .  A
C1519      C1520   1.404       .  A
C1519      H1523   1.083       .  S
C1520      N1524   1.438       .  S
N1522      H1525   1.046       .  S
N1522      H1526   1.046       .  S
N1524      H1527   1.046       .  S
N1524      H1528   1.046       .  S
C1533      C1534   1.412       .  A
C1533      C1538   1.405       .  A
C1534      C1535   1.402       .  A
C1534      N1539   1.438       .  S
C1535      C1536   1.402       .  A
C1535      H1540   1.084       .  S
C1536      C1541   1.485       .  S
C1536      C1537   1.411       .  A
C1537      C1538   1.408       .  A
C1537      N1542   1.437       .  S
C1538      H1543   1.084       .  S
N1539      H1559   1.046       .  S
N1539      H1560   1.046       .  S
C1541      C1544   1.405       .  A
C1541      C1548   1.410       .  A
N1542      H1557   1.046       .  S
N1542      H1558   1.045       .  S
C1544      C1545   1.407       .  A
C1544      H1549   1.084       .  S
C1545      C1546   1.412       .  A
C1545      N1550   1.438       .  S
C1546      C1547   1.403       .  A
C1547      C1548   1.402       .  A
C1547      H1551   1.084       .  S
C1548      N1552   1.438       .  S
N1550      H1553   1.046       .  S
N1550      H1554   1.046       .  S
N1552      H1555   1.046       .  S
N1552      H1556   1.046       .  S
C1561      C1562   1.417   1_565  A
C1561      C1566   1.406       .  A
C1562      C1563   1.399       .  A
C1562      N1567   1.433       .  S
C1563      C1564   1.397       .  A
C1563      H1568   1.084       .  S
C1564      C1569   1.483       .  S
C1564      C1565   1.412   1_545  A
C1565      C1566   1.411       .  A
C1565      N1570   1.437       .  S
C1566      H1571   1.083       .  S
N1567      H1587   1.046       .  S
N1567      H1588   1.046       .  S
C1569      C1572   1.398   1_545  A
C1569      C1576   1.412       .  A
N1570      H1585   1.046       .  S
N1570      H1586   1.046       .  S
C1572      C1573   1.402       .  A
C1572      H1577   1.084       .  S
C1573      C1574   1.419   1_565  A
C1573      N1578   1.438       .  S
C1574      C1575   1.405       .  A
C1575      C1576   1.409       .  A
C1575      H1579   1.084       .  S
C1576      N1580   1.437       .  S
N1578      H1581   1.046       .  S
N1578      H1582   1.046       .  S
N1580      H1583   1.046       .  S
N1580      H1584   1.046       .  S
C1589      C1590   1.415       .  A
C1589      C1594   1.411   1_545  A
C1590      C1591   1.408       .  A
C1590      N1595   1.437       .  S
C1591      C1592   1.405   1_545  A
C1591      H1596   1.084       .  S
C1592      C1597   1.484       .  S
C1592      C1593   1.406       .  A
C1593      C1594   1.401       .  A
C1593      N1598   1.438       .  S
C1594      H1599   1.083       .  S
N1595      H1615   1.046       .  S
N1595      H1616   1.046       .  S
C1597      C1600   1.404       .  A
C1597      C1604   1.408   1_565  A
N1598      H1613   1.046       .  S
N1598      H1614   1.046       .  S
C1600      C1601   1.407       .  A
C1600      H1605   1.084       .  S
C1601      C1602   1.414       .  A
C1601      N1606   1.438       .  S
C1602      C1603   1.405   1_565  A
C1603      C1604   1.402       .  A
C1603      H1607   1.084       .  S
C1604      N1608   1.438       .  S
N1606      H1609   1.046       .  S
N1606      H1610   1.045       .  S
N1608      H1611   1.046       .  S
N1608      H1612   1.046       .  S
C1617      C1618   1.415       .  A
C1617      C1622   1.408       .  A
C1618      C1619   1.408       .  A
C1618      N1623   1.437       .  S
C1619      C1620   1.403       .  A
C1619      H1624   1.084       .  S
C1620      C1625   1.483       .  S
C1620      C1621   1.408       .  A
C1621      C1622   1.403       .  A
C1621      N1626   1.439       .  S
C1622      H1627   1.084       .  S
N1623      H1643   1.046       .  S
N1623      H1644   1.046       .  S
C1625      C1628   1.401       .  A
C1625      C1632   1.409       .  A
N1626      H1641   1.046   1_556  S
N1626      H1642   1.046   1_556  S
C1628      C1629   1.403       .  A
C1628      H1633   1.084       .  S
C1629      C1630   1.416       .  A
C1629      N1634   1.439       .  S
C1630      C1631   1.406       .  A
C1631      C1632   1.405       .  A
C1631      H1635   1.084       .  S
C1632      N1636   1.437       .  S
N1634      H1637   1.046       .  S
N1634      H1638   1.046       .  S
N1636      H1639   1.046       .  S
N1636      H1640   1.045       .  S
C1645      C1646   1.419       .  A
C1645      C1650   1.410       .  A
C1646      C1647   1.405       .  A
C1646      N1651   1.438       .  S
C1647      C1648   1.402       .  A
C1647      H1652   1.084       .  S
C1648      C1653   1.490       .  S
C1648      C1649   1.409       .  A
C1649      C1650   1.410       .  A
C1649      N1654   1.437       .  S
C1650      H1655   1.083       .  S
N1651      H1671   1.046       .  S
N1651      H1672   1.046       .  S
C1653      C1656   1.405       .  A
C1653      C1660   1.408       .  A
N1654      H1669   1.046       .  S
N1654      H1670   1.046       .  S
C1656      C1657   1.413       .  A
C1656      H1661   1.083       .  S
C1657      C1658   1.417       .  A
C1657      N1662   1.437       .  S
C1658      C1659   1.409       .  A
C1659      C1660   1.402       .  A
C1659      H1663   1.083       .  S
C1660      N1664   1.438       .  S
N1662      H1665   1.046       .  S
N1662      H1666   1.046       .  S
N1664      H1667   1.046       .  S
N1664      H1668   1.046       .  S
C1673      C1674   1.417       .  A
C1673      C1678   1.408       .  A
C1674      C1675   1.407       .  A
C1674      N1679   1.437       .  S
C1675      C1676   1.402       .  A
C1675      H1680   1.084       .  S
C1676      C1681   1.482       .  S
C1676      C1677   1.407       .  A
C1677      C1678   1.400       .  A
C1677      N1682   1.439       .  S
C1678      H1683   1.083       .  S
N1679      H1699   1.045       .  S
N1679      H1700   1.046       .  S
C1681      C1684   1.401       .  A
C1681      C1688   1.410       .  A
N1682      H1697   1.046       .  S
N1682      H1698   1.046       .  S
C1684      C1685   1.399       .  A
C1684      H1689   1.084       .  S
C1685      C1686   1.413       .  A
C1685      N1690   1.433       .  S
C1686      C1687   1.407       .  A
C1687      C1688   1.406       .  A
C1687      H1691   1.083       .  S
C1688      N1692   1.438       .  S
N1690      H1693   1.046       .  S
N1690      H1694   1.046       .  S
N1692      H1695   1.046       .  S
N1692      H1696   1.046       .  S
C1701      C1702   1.414       .  A
C1701      C1706   1.406       .  A
C1702      C1703   1.409       .  A
C1702      N1707   1.438       .  S
C1703      C1704   1.404       .  A
C1703      H1708   1.084       .  S
C1704      C1709   1.486       .  S
C1704      C1705   1.410       .  A
C1705      C1706   1.404       .  A
C1705      N1710   1.438       .  S
C1706      H1711   1.084       .  S
N1707      H1727   1.046       .  S
N1707      H1728   1.046       .  S
C1709      C1712   1.402       .  A
C1709      C1716   1.410       .  A
N1710      H1725   1.046       .  S
N1710      H1726   1.046       .  S
C1712      C1713   1.405       .  A
C1712      H1717   1.084       .  S
C1713      C1714   1.414       .  A
C1713      N1718   1.438       .  S
C1714      C1715   1.408       .  A
C1715      C1716   1.409       .  A
C1715      H1719   1.084       .  S
C1716      N1720   1.438       .  S
N1718      H1721   1.046       .  S
N1718      H1722   1.046       .  S
N1720      H1723   1.046       .  S
N1720      H1724   1.046       .  S
C1729      C1730   1.413       .  A
C1729      C1734   1.408       .  A
C1730      C1731   1.409       .  A
C1730      N1735   1.437       .  S
C1731      C1732   1.404       .  A
C1731      H1736   1.084       .  S
C1732      C1737   1.485       .  S
C1732      C1733   1.408       .  A
C1733      C1734   1.405       .  A
C1733      N1738   1.438       .  S
C1734      H1739   1.084       .  S
N1735      H1755   1.046       .  S
N1735      H1756   1.046       .  S
C1737      C1740   1.404       .  A
C1737      C1744   1.406       .  A
N1738      H1753   1.046       .  S
N1738      H1754   1.046       .  S
C1740      C1741   1.411       .  A
C1740      H1745   1.084       .  S
C1741      C1742   1.416       .  A
C1741      N1746   1.437       .  S
C1742      C1743   1.410       .  A
C1743      C1744   1.403       .  A
C1743      H1747   1.083       .  S
C1744      N1748   1.438       .  S
N1746      H1749   1.046       .  S
N1746      H1750   1.046       .  S
N1748      H1751   1.046   1_556  S
N1748      H1752   1.046       .  S
C1757      C1758   1.416       .  A
C1757      C1762   1.410       .  A
C1758      C1759   1.412       .  A
C1758      N1763   1.437       .  S
C1759      C1760   1.408       .  A
C1759      H1764   1.083       .  S
C1760      C1765   1.494       .  S
C1760      C1761   1.409       .  A
C1761      C1762   1.402       .  A
C1761      N1766   1.438       .  S
C1762      H1767   1.083       .  S
N1763      H1783   1.045       .  S
N1763      H1784   1.046       .  S
C1765      C1768   1.407       .  A
C1765      C1772   1.410       .  A
N1766      H1781   1.046       .  S
N1766      H1782   1.045       .  S
C1768      C1769   1.410       .  A
C1768      H1773   1.083       .  S
C1769      C1770   1.414       .  A
C1769      N1774   1.437       .  S
C1770      C1771   1.410       .  A
C1771      C1772   1.406       .  A
C1771      H1775   1.083       .  S
C1772      N1776   1.438       .  S
N1774      H1777   1.046       .  S
N1774      H1778   1.046       .  S
N1776      H1779   1.046       .  S
N1776      H1780   1.046       .  S
C1785      C1786   1.417       .  A
C1785      C1790   1.410       .  A
C1786      C1787   1.408       .  A
C1786      N1791   1.437       .  S
C1787      C1788   1.400       .  A
C1787      H1792   1.084       .  S
C1788      C1793   1.476       .  S
C1788      C1789   1.405       .  A
C1789      C1790   1.404       .  A
C1789      N1794   1.438       .  S
C1790      H1795   1.083       .  S
N1791      H1811   1.045       .  S
N1791      H1812   1.046       .  S
C1793      C1796   1.400       .  A
C1793      C1800   1.410       .  A
N1794      H1809   1.046       .  S
N1794      H1810   1.045       .  S
C1796      C1797   1.404       .  A
C1796      H1801   1.084       .  S
C1797      C1798   1.411       .  A
C1797      N1802   1.438       .  S
C1798      C1799   1.402       .  A
C1799      C1800   1.406       .  A
C1799      H1803   1.084       .  S
C1800      N1804   1.438       .  S
N1802      H1805   1.046       .  S
N1802      H1806   1.046       .  S
N1804      H1807   1.046       .  S
N1804      H1808   1.045       .  S
C1813      C1814   1.421       .  A
C1813      C1818   1.411       .  A
C1814      C1815   1.404       .  A
C1814      N1819   1.438       .  S
C1815      C1816   1.398       .  A
C1815      H1820   1.084       .  S
C1816      C1821   1.481       .  S
C1816      C1817   1.406       .  A
C1817      C1818   1.408       .  A
C1817      N1822   1.437       .  S
C1818      H1823   1.083       .  S
N1819      H1839   1.046       .  S
N1819      H1840   1.046       .  S
C1821      C1824   1.403       .  A
C1821      C1828   1.406       .  A
N1822      H1837   1.046       .  S
N1822      H1838   1.046       .  S
C1824      C1825   1.410       .  A
C1824      H1829   1.084       .  S
C1825      C1826   1.415       .  A
C1825      N1830   1.436       .  S
C1826      C1827   1.407       .  A
C1827      C1828   1.402       .  A
C1827      H1831   1.084       .  S
C1828      N1832   1.438       .  S
N1830      H1833   1.046       .  S
N1830      H1834   1.044       .  S
N1832      H1835   1.046       .  S
N1832      H1836   1.046       .  S
C1841      C1842   1.415       .  A
C1841      C1846   1.407       .  A
C1842      C1843   1.406       .  A
C1842      N1847   1.438       .  S
C1843      C1844   1.402       .  A
C1843      H1848   1.084       .  S
C1844      C1849   1.484       .  S
C1844      C1845   1.409       .  A
C1845      C1846   1.405       .  A
C1845      N1850   1.438       .  S
C1846      H1851   1.084       .  S
N1847      H1867   1.046       .  S
N1847      H1868   1.046       .  S
C1849      C1852   1.401       .  A
C1849      C1856   1.409       .  A
N1850      H1865   1.046       .  S
N1850      H1866   1.046       .  S
C1852      C1853   1.406       .  A
C1852      H1857   1.084       .  S
C1853      C1854   1.417       .  A
C1853      N1858   1.438       .  S
C1854      C1855   1.408       .  A
C1855      C1856   1.406       .  A
C1855      H1859   1.083       .  S
C1856      N1860   1.438       .  S
N1858      H1861   1.046       .  S
N1858      H1862   1.046       .  S
N1860      H1863   1.046       .  S
N1860      H1864   1.046       .  S
C1869      C1870   1.407       .  A
C1869      C1874   1.403       .  A
C1870      C1871   1.403       .  A
C1870      N1875   1.438       .  S
C1871      C1872   1.406       .  A
C1871      H1876   1.084       .  S
C1872      C1877   1.483       .  S
C1872      C1873   1.411       .  A
C1873      C1874   1.402       .  A
C1873      N1878   1.438       .  S
C1874      H1879   1.084       .  S
N1875      H1895   1.046       .  S
N1875      H1896   1.046       .  S
C1877      C1880   1.403       .  A
C1877      C1884   1.412       .  A
N1878      H1893   1.046       .  S
N1878      H1894   1.046       .  S
C1880      C1881   1.402       .  A
C1880      H1885   1.083       .  S
C1881      C1882   1.412       .  A
C1881      N1886   1.439       .  S
C1882      C1883   1.401       .  A
C1883      C1884   1.403       .  A
C1883      H1887   1.084       .  S
C1884      N1888   1.438       .  S
N1886      H1889   1.046       .  S
N1886      H1890   1.045       .  S
N1888      H1891   1.046       .  S
N1888      H1892   1.046       .  S
C1897      C1898   1.417       .  A
C1897      C1902   1.407       .  A
C1898      C1899   1.403       .  A
C1898      N1903   1.438       .  S
C1899      C1900   1.402       .  A
C1899      H1904   1.084       .  S
C1900      C1905   1.488       .  S
C1900      C1901   1.411       .  A
C1901      C1902   1.408       .  A
C1901      N1906   1.438       .  S
C1902      H1907   1.083       .  S
N1903      H1923   1.046       .  S
N1903      H1924   1.046       .  S
C1905      C1908   1.402       .  A
C1905      C1912   1.411       .  A
N1906      H1921   1.046       .  S
N1906      H1922   1.046       .  S
C1908      C1909   1.407       .  A
C1908      H1913   1.084       .  S
C1909      C1910   1.417       .  A
C1909      N1914   1.437       .  S
C1910      C1911   1.407       .  A
C1911      C1912   1.405       .  A
C1911      H1915   1.083       .  S
C1912      N1916   1.438       .  S
N1914      H1917   1.046       .  S
N1914      H1918   1.046       .  S
N1916      H1919   1.046       .  S
N1916      H1920   1.046       .  S
C1925      C1926   1.419       .  A
C1925      C1930   1.409       .  A
C1926      C1927   1.410       .  A
C1926      N1931   1.437       .  S
C1927      C1928   1.402       .  A
C1927      H1932   1.084       .  S
C1928      C1933   1.488       .  S
C1928      C1929   1.408       .  A
C1929      C1930   1.406       .  A
C1929      N1934   1.438       .  S
C1930      H1935   1.083       .  S
N1931      H1951   1.046       .  S
N1931      H1952   1.046       .  S
C1933      C1936   1.400       .  A
C1933      C1940   1.409       .  A
N1934      H1949   1.046       .  S
N1934      H1950   1.046       .  S
C1936      C1937   1.405       .  A
C1936      H1941   1.084       .  S
C1937      C1938   1.420       .  A
C1937      N1942   1.438       .  S
C1938      C1939   1.410       .  A
C1939      C1940   1.411       .  A
C1939      H1943   1.083       .  S
C1940      N1944   1.437       .  S
N1942      H1945   1.046       .  S
N1942      H1946   1.045       .  S
N1944      H1947   1.046       .  S
N1944      H1948   1.046       .  S
C1953      C1954   1.416       .  A
C1953      C1958   1.411       .  A
C1954      C1955   1.411       .  A
C1954      N1959   1.437       .  S
C1955      C1956   1.403       .  A
C1955      H1960   1.084       .  S
C1956      C1961   1.482       .  S
C1956      C1957   1.404       .  A
C1957      C1958   1.403       .  A
C1957      N1962   1.438       .  S
C1958      H1963   1.083       .  S
N1959      H1979   1.046       .  S
N1959      H1980   1.046       .  S
C1961      C1964   1.404       .  A
C1961      C1968   1.407       .  A
N1962      H1977   1.046       .  S
N1962      H1978   1.046       .  S
C1964      C1965   1.405       .  A
C1964      H1969   1.084       .  S
C1965      C1966   1.409       .  A
C1965      N1970   1.432       .  S
C1966      C1967   1.409       .  A
C1967      C1968   1.406       .  A
C1967      H1971   1.084       .  S
C1968      N1972   1.438       .  S
N1970      H1973   1.046       .  S
N1970      H1974   1.045       .  S
N1972      H1975   1.046       .  S
N1972      H1976   1.046       .  S
C1981      C1982   1.414       .  A
C1981      C1986   1.410       .  A
C1982      C1983   1.408       .  A
C1982      N1987   1.438       .  S
C1983      C1984   1.404       .  A
C1983      H1988   1.084       .  S
C1984      C1989   1.485       .  S
C1984      C1985   1.407       .  A
C1985      C1986   1.404       .  A
C1985      N1990   1.438       .  S
C1986      H1991   1.084       .  S
N1987      H2007   1.046       .  S
N1987      H2008   1.046       .  S
C1989      C1992   1.405       .  A
C1989      C1996   1.407       .  A
N1990      H2005   1.046       .  S
N1990      H2006   1.046       .  S
C1992      C1993   1.410       .  A
C1992      H1997   1.084       .  S
C1993      C1994   1.415       .  A
C1993      N1998   1.438       .  S
C1994      C1995   1.407       .  A
C1995      C1996   1.401       .  A
C1995      H1999   1.084       .  S
C1996      N2000   1.438       .  S
N1998      H2001   1.046       .  S
N1998      H2002   1.045       .  S
N2000      H2003   1.046       .  S
N2000      H2004   1.046       .  S
C2009      C2010   1.413       .  A
C2009      C2014   1.403       .  A
C2010      C2011   1.398       .  A
C2010      N2015   1.433       .  S
C2011      C2012   1.400       .  A
C2011      H2016   1.084       .  S
C2012      C2017   1.484       .  S
C2012      C2013   1.414       .  A
C2013      C2014   1.408       .  A
C2013      N2018   1.438       .  S
C2014      H2019   1.084       .  S
N2015      H2035   1.046       .  S
N2015      H2036   1.046       .  S
C2017      C2020   1.398       .  A
C2017      C2024   1.412       .  A
N2018      H2033   1.046       .  S
N2018      H2034   1.045       .  S
C2020      C2021   1.401       .  A
C2020      H2025   1.084       .  S
C2021      C2022   1.419       .  A
C2021      N2026   1.438       .  S
C2022      C2023   1.407       .  A
C2023      C2024   1.407       .  A
C2023      H2027   1.083       .  S
C2024      N2028   1.438       .  S
N2026      H2029   1.046       .  S
N2026      H2030   1.045       .  S
N2028      H2031   1.046       .  S
N2028      H2032   1.045       .  S
C2037      C2038   1.416       .  A
C2037      C2042   1.408       .  A
C2038      C2039   1.401       .  A
C2038      N2043   1.433       .  S
C2039      C2040   1.401       .  A
C2039      H2044   1.084       .  S
C2040      C2045   1.486       .  S
C2040      C2041   1.410       .  A
C2041      C2042   1.407       .  A
C2041      N2046   1.438       .  S
C2042      H2047   1.083       .  S
N2043      H2063   1.046       .  S
N2043      H2064   1.046       .  S
C2045      C2048   1.404       .  A
C2045      C2052   1.410       .  A
N2046      H2061   1.046       .  S
N2046      H2062   1.046       .  S
C2048      C2049   1.405       .  A
C2048      H2053   1.084       .  S
C2049      C2050   1.413       .  A
C2049      N2054   1.432       .  S
C2050      C2051   1.408       .  A
C2051      C2052   1.403       .  A
C2051      H2055   1.083       .  S
C2052      N2056   1.438       .  S
N2054      H2057   1.046       .  S
N2054      H2058   1.046       .  S
N2056      H2059   1.046       .  S
N2056      H2060   1.045       .  S
C2065      C2066   1.417       .  A
C2065      C2070   1.410       .  A
C2066      C2067   1.406       .  A
C2066      N2071   1.438       .  S
C2067      C2068   1.402       .  A
C2067      H2072   1.084       .  S
C2068      C2073   1.493       .  S
C2068      C2069   1.411       .  A
C2069      C2070   1.414       .  A
C2069      N2074   1.437       .  S
C2070      H2075   1.083       .  S
N2071      H2091   1.045       .  S
N2071      H2092   1.046       .  S
C2073      C2076   1.406       .  A
C2073      C2080   1.410       .  A
N2074      H2089   1.045       .  S
N2074      H2090   1.046       .  S
C2076      C2077   1.413       .  A
C2076      H2081   1.083       .  S
C2077      C2078   1.416       .  A
C2077      N2082   1.437       .  S
C2078      C2079   1.408       .  A
C2079      C2080   1.404       .  A
C2079      H2083   1.084       .  S
C2080      N2084   1.438       .  S
N2082      H2085   1.046       .  S
N2082      H2086   1.046       .  S
N2084      H2087   1.046       .  S
N2084      H2088   1.046       .  S
C2093      C2094   1.409       .  A
C2093      C2098   1.402       .  A
C2094      C2095   1.409       .  A
C2094      N2099   1.437       .  S
C2095      C2096   1.408       .  A
C2095      H2100   1.083       .  S
C2096      C2101   1.494       .  S
C2096      C2097   1.414       .  A
C2097      C2098   1.404       .  A
C2097      N2102   1.438       .  S
C2098      H2103   1.084       .  S
N2099      H2119   1.046       .  S
N2099      H2120   1.046       .  S
C2101      C2104   1.403       .  A
C2101      C2108   1.414       .  A
N2102      H2117   1.046       .  S
N2102      H2118   1.046   1_554  S
C2104      C2105   1.403       .  A
C2104      H2109   1.083       .  S
C2105      C2106   1.415       .  A
C2105      N2110   1.439       .  S
C2106      C2107   1.405       .  A
C2107      C2108   1.410       .  A
C2107      H2111   1.084       .  S
C2108      N2112   1.437       .  S
N2110      H2113   1.046       .  S
N2110      H2114   1.046       .  S
N2112      H2115   1.046       .  S
N2112      H2116   1.045       .  S
C2121      C2122   1.415       .  A
C2121      C2126   1.405       .  A
C2122      C2123   1.409       .  A
C2122      N2127   1.438       .  S
C2123      C2124   1.405       .  A
C2123      H2128   1.083       .  S
C2124      C2129   1.490       .  S
C2124      C2125   1.411       .  A
C2125      C2126   1.403       .  A
C2125      N2130   1.438       .  S
C2126      H2131   1.084       .  S
N2127      H2147   1.046       .  S
N2127      H2148   1.046       .  S
C2129      C2132   1.404       .  A
C2129      C2136   1.412       .  A
N2130      H2145   1.046       .  S
N2130      H2146   1.046       .  S
C2132      C2133   1.405       .  A
C2132      H2137   1.084       .  S
C2133      C2134   1.413       .  A
C2133      N2138   1.438       .  S
C2134      C2135   1.406       .  A
C2135      C2136   1.408       .  A
C2135      H2139   1.084       .  S
C2136      N2140   1.438       .  S
N2138      H2141   1.046       .  S
N2138      H2142   1.046       .  S
N2140      H2143   1.046       .  S
N2140      H2144   1.046       .  S
C2149      C2150   1.415       .  A
C2149      C2154   1.409       .  A
C2150      C2151   1.404       .  A
C2150      N2155   1.438       .  S
C2151      C2152   1.402       .  A
C2151      H2156   1.084       .  S
C2152      C2157   1.483       .  S
C2152      C2153   1.408       .  A
C2153      C2154   1.406       .  A
C2153      N2158   1.438       .  S
C2154      H2159   1.083       .  S
N2155      H2175   1.046       .  S
N2155      H2176   1.046       .  S
C2157      C2160   1.405       .  A
C2157      C2164   1.407       .  A
N2158      H2173   1.046       .  S
N2158      H2174   1.045       .  S
C2160      C2161   1.410       .  A
C2160      H2165   1.084       .  S
C2161      C2162   1.414       .  A
C2161      N2166   1.437       .  S
C2162      C2163   1.405       .  A
C2163      C2164   1.400       .  A
C2163      H2167   1.084       .  S
C2164      N2168   1.438       .  S
N2166      H2169   1.046       .  S
N2166      H2170   1.046       .  S
N2168      H2171   1.046       .  S
N2168      H2172   1.046       .  S
C2177      C2178   1.420       .  A
C2177      C2182   1.410       .  A
C2178      C2179   1.403       .  A
C2178      N2183   1.438       .  S
C2179      C2180   1.396       .  A
C2179      H2184   1.084       .  S
C2180      C2185   1.476       .  S
C2180      C2181   1.407       .  A
C2181      C2182   1.408       .  A
C2181      N2186   1.438       .  S
C2182      H2187   1.083       .  S
N2183      H2203   1.046       .  S
N2183      H2204   1.046       .  S
C2185      C2188   1.398       .  A
C2185      C2192   1.409       .  A
N2186      H2201   1.046       .  S
N2186      H2202   1.045       .  S
C2188      C2189   1.403       .  A
C2188      H2193   1.084       .  S
C2189      C2190   1.414       .  A
C2189      N2194   1.438       .  S
C2190      C2191   1.403       .  A
C2191      C2192   1.407       .  A
C2191      H2195   1.084       .  S
C2192      N2196   1.437       .  S
N2194      H2197   1.046       .  S
N2194      H2198   1.046       .  S
N2196      H2199   1.046       .  S
N2196      H2200   1.045       .  S
C2205      C2206   1.408       .  A
C2205      C2210   1.403       .  A
C2206      C2207   1.408       .  A
C2206      N2211   1.437       .  S
C2207      C2208   1.408       .  A
C2207      H2212   1.083       .  S
C2208      C2213   1.494       .  S
C2208      C2209   1.414       .  A
C2209      C2210   1.406       .  A
C2209      N2214   1.438       .  S
C2210      H2215   1.084       .  S
N2211      H2231   1.046       .  S
N2211      H2232   1.046       .  S
C2213      C2216   1.405       .  A
C2213      C2220   1.414       .  A
N2214      H2229   1.046       .  S
N2214      H2230   1.046       .  S
C2216      C2217   1.406       .  A
C2216      H2221   1.083       .  S
C2217      C2218   1.413       .  A
C2217      N2222   1.439       .  S
C2218      C2219   1.403       .  A
C2219      C2220   1.406       .  A
C2219      H2223   1.084       .  S
C2220      N2224   1.438       .  S
N2222      H2225   1.046       .  S
N2222      H2226   1.046       .  S
N2224      H2227   1.046       .  S
N2224      H2228   1.045       .  S
C2233      C2234   1.418   1_565  A
C2233      C2238   1.408       .  A
C2234      C2235   1.400       .  A
C2234      N2239   1.433       .  S
C2235      C2236   1.399   1_545  A
C2235      H2240   1.084       .  S
C2236      C2241   1.483       .  S
C2236      C2237   1.411       .  A
C2237      C2238   1.408       .  A
C2237      N2242   1.438   1_655  S
C2238      H2243   1.083   1_655  S
N2239      H2259   1.046       .  S
N2239      H2260   1.046       .  S
C2241      C2244   1.401       .  A
C2241      C2248   1.412   1_665  A
N2242      H2257   1.046       .  S
N2242      H2258   1.046       .  S
C2244      C2245   1.404       .  A
C2244      H2249   1.084       .  S
C2245      C2246   1.416   1_565  A
C2245      N2250   1.438       .  S
C2246      C2247   1.403   1_655  A
C2247      C2248   1.406       .  A
C2247      H2251   1.084       .  S
C2248      N2252   1.438       .  S
N2250      H2253   1.046       .  S
N2250      H2254   1.046       .  S
N2252      H2255   1.046       .  S
N2252      H2256   1.046       .  S
C2261      C2262   1.417   1_455  A
C2261      C2266   1.405   1_565  A
C2262      C2263   1.401       .  A
C2262      N2267   1.433       .  S
C2263      C2264   1.400   1_655  A
C2263      H2268   1.084       .  S
C2264      C2269   1.484   1_554  S
C2264      C2265   1.412   1_565  A
C2265      C2266   1.407       .  A
C2265      N2270   1.437       .  S
C2266      H2271   1.083       .  S
N2267      H2287   1.046       .  S
N2267      H2288   1.046       .  S
C2269      C2272   1.400   1_465  A
C2269      C2276   1.412       .  A
N2270      H2285   1.046       .  S
N2270      H2286   1.045       .  S
C2272      C2273   1.402       .  A
C2272      H2277   1.084       .  S
C2273      C2274   1.416   1_645  A
C2273      N2278   1.438       .  S
C2274      C2275   1.404       .  A
C2275      C2276   1.407       .  A
C2275      H2279   1.084       .  S
C2276      N2280   1.438       .  S
N2278      H2281   1.046       .  S
N2278      H2282   1.046       .  S
N2280      H2283   1.046       .  S
N2280      H2284   1.046       .  S
C2289      C2290   1.415       .  A
C2289      C2294   1.408       .  A
C2290      C2291   1.411       .  A
C2290      N2295   1.438       .  S
C2291      C2292   1.406       .  A
C2291      H2296   1.083       .  S
C2292      C2297   1.493       .  S
C2292      C2293   1.410       .  A
C2293      C2294   1.405       .  A
C2293      N2298   1.438       .  S
C2294      H2299   1.084       .  S
N2295      H2315   1.046       .  S
N2295      H2316   1.046       .  S
C2297      C2300   1.404       .  A
C2297      C2304   1.412       .  A
N2298      H2313   1.046       .  S
N2298      H2314   1.046       .  S
C2300      C2301   1.405       .  A
C2300      H2305   1.084       .  S
C2301      C2302   1.414       .  A
C2301      N2306   1.433       .  S
C2302      C2303   1.406       .  A
C2303      C2304   1.409       .  A
C2303      H2307   1.083       .  S
C2304      N2308   1.437       .  S
N2306      H2309   1.046       .  S
N2306      H2310   1.046       .  S
N2308      H2311   1.045       .  S
N2308      H2312   1.045       .  S
C2317      C2318   1.417       .  A
C2317      C2322   1.406       .  A
C2318      C2319   1.400       .  A
C2318      N2323   1.438       .  S
C2319      C2320   1.398       .  A
C2319      H2324   1.084       .  S
C2320      C2325   1.478       .  S
C2320      C2321   1.409       .  A
C2321      C2322   1.407       .  A
C2321      N2326   1.437       .  S
C2322      H2327   1.083       .  S
N2323      H2343   1.046       .  S
N2323      H2344   1.046       .  S
C2325      C2328   1.400       .  A
C2325      C2332   1.407       .  A
N2326      H2341   1.046       .  S
N2326      H2342   1.046       .  S
C2328      C2329   1.406       .  A
C2328      H2333   1.084       .  S
C2329      C2330   1.418       .  A
C2329      N2334   1.438       .  S
C2330      C2331   1.407       .  A
C2331      C2332   1.401       .  A
C2331      H2335   1.083       .  S
C2332      N2336   1.438       .  S
N2334      H2337   1.046       .  S
N2334      H2338   1.046       .  S
N2336      H2339   1.046       .  S
N2336      H2340   1.046       .  S
C2345      C2346   1.417       .  A
C2345      C2350   1.409       .  A
C2346      C2347   1.407       .  A
C2346      N2351   1.438       .  S
C2347      C2348   1.400       .  A
C2347      H2352   1.084       .  S
C2348      C2353   1.480       .  S
C2348      C2349   1.407       .  A
C2349      C2350   1.408       .  A
C2349      N2354   1.438       .  S
C2350      H2355   1.083       .  S
N2351      H2371   1.046       .  S
N2351      H2372   1.046       .  S
C2353      C2356   1.400       .  A
C2353      C2360   1.411       .  A
N2354      H2369   1.046       .  S
N2354      H2370   1.046       .  S
C2356      C2357   1.398       .  A
C2356      H2361   1.084       .  S
C2357      C2358   1.415       .  A
C2357      N2362   1.433       .  S
C2358      C2359   1.401       .  A
C2359      C2360   1.408       .  A
C2359      H2363   1.084       .  S
C2360      N2364   1.437       .  S
N2362      H2365   1.044       .  S
N2362      H2366   1.045       .  S
N2364      H2367   1.046       .  S
N2364      H2368   1.046       .  S
C2373      C2374   1.415       .  A
C2373      C2378   1.409       .  A
C2374      C2375   1.410       .  A
C2374      N2379   1.437       .  S
C2375      C2376   1.405       .  A
C2375      H2380   1.084       .  S
C2376      C2381   1.486       .  S
C2376      C2377   1.407       .  A
C2377      C2378   1.404       .  A
C2377      N2382   1.438       .  S
C2378      H2383   1.083       .  S
N2379      H2399   1.046       .  S
N2379      H2400   1.045       .  S
C2381      C2384   1.405       .  A
C2381      C2388   1.407       .  A
N2382      H2397   1.045       .  S
N2382      H2398   1.046       .  S
C2384      C2385   1.411       .  A
C2384      H2389   1.084       .  S
C2385      C2386   1.415       .  A
C2385      N2390   1.437       .  S
C2386      C2387   1.409       .  A
C2387      C2388   1.403       .  A
C2387      H2391   1.083       .  S
C2388      N2392   1.438       .  S
N2390      H2393   1.046       .  S
N2390      H2394   1.046       .  S
N2392      H2395   1.046       .  S
N2392      H2396   1.046       .  S
