geometry optimzed in LAMMPS
_audit_creation_date              2020-12-01 
_audit_creation_method            'lammps2cif' 
_symmetry_space_group_name_H-M    'P1' 
_symmetry_Int_Tables_number       1 
_symmetry_cell_setting            triclinic 
loop_ 
_symmetry_equiv_pos_as_xyz 
  x,y,z 
_cell_length_a                    98.64936796 
_cell_length_b                    99.40540333370159 
_cell_length_c                    50.772323989674874 
_cell_angle_alpha                 89.79478734139596 
_cell_angle_beta                  90.01342305214736 
_cell_angle_gamma                 119.64461542039162 
loop_ 
_atom_site_label 
_atom_site_type_symbol 
_atom_site_fract_x 
_atom_site_fract_y 
_atom_site_fract_z 
_atom_site_charge 
N1          N  0.47055956  0.93296047  0.79864783    -0.26900
N2          N  0.47706333  0.93491321  0.82207362    -0.34800
C3          C  0.48818001  0.94966785  0.82500457     0.01400
C4          C  0.48891458  0.95777041  0.80244222     0.07400
C5          C  0.47747946  0.94682010  0.78597014    -0.05700
H6          H  0.49492512  0.95422832  0.84280801     0.08100
H7          H  0.47451240  0.94876407  0.76634663     0.09300
Cu8        Cu  0.46985251  0.91831343  0.85095293     0.44200
Cu9        Cu  0.45294712  0.91066526  0.78760334     0.42000
Cu10       Cu  0.43701651  0.88190161  0.84461723     0.43900
N11         N  0.45966941  0.90409839  0.88281188    -0.34300
N12         N  0.44694582  0.89044561  0.88137985    -0.28600
C13         C  0.44283236  0.88460463  0.90602470    -0.04700
C14         C  0.45357279  0.89529774  0.92353830     0.07600
C15         C  0.46401255  0.90744848  0.90798218     0.01400
H16         H  0.43274042  0.87358326  0.91082527     0.09000
H17         H  0.47395375  0.91814279  0.91441221     0.08100
N18         N  0.43256807  0.87663312  0.80462034    -0.35800
N19         N  0.43803779  0.88651403  0.78454535    -0.27900
C20         C  0.43351402  0.87836652  0.76191280    -0.03200
C21         C  0.42492054  0.86271550  0.76798542     0.05400
C22         C  0.42455193  0.86212443  0.79519682     0.03500
H23         H  0.43675205  0.88344432  0.74245275     0.08600
H24         H  0.41927540  0.85184483  0.80742082     0.07500
N25         N  0.47695253  0.93610347  0.23423288    -0.26900
N26         N  0.48308215  0.93896131  0.21031894    -0.34800
C27         C  0.49420431  0.95388829  0.20856389     0.01400
C28         C  0.49512129  0.96099807  0.23236668     0.07400
C29         C  0.48395376  0.94938189  0.24825203    -0.05700
H30         H  0.50079929  0.95928750  0.19086315     0.08100
H31         H  0.48121448  0.95047409  0.26848555     0.09300
Cu32       Cu  0.47519150  0.92314248  0.17976939     0.44200
Cu33       Cu  0.45964442  0.91378773  0.24556693     0.42000
Cu34       Cu  0.44215656  0.88632869  0.18949601     0.43900
N35         N  0.46401834  0.90789415  0.14918093    -0.34300
N36         N  0.45142177  0.89424215  0.15233700    -0.28600
C37         C  0.44662800  0.88748960  0.12857245    -0.04700
C38         C  0.45674062  0.89751591  0.10962557     0.07600
C39         C  0.46758570  0.91029085  0.12348305     0.01400
H40         H  0.43646400  0.87627609  0.12533801     0.09000
H41         H  0.47726434  0.92073468  0.11553204     0.08100
N42         N  0.43782883  0.88041916  0.22902594    -0.35800
N43         N  0.44407745  0.88989960  0.24926875    -0.27900
C44         C  0.43947304  0.88143346  0.27168430    -0.03200
C45         C  0.42994099  0.86598567  0.26512004     0.05400
C46         C  0.42917028  0.86586363  0.23796789     0.03500
H47         H  0.44312983  0.88613302  0.29123410     0.08600
H48         H  0.42315337  0.85584383  0.22542027     0.07500
N49         N  0.55383809  0.09193944  0.80937084    -0.26900
N50         N  0.55621889  0.08852985  0.83351400    -0.34800
C51         C  0.55101422  0.07326994  0.83533346     0.01400
C52         C  0.54484887  0.06653290  0.81130687     0.07400
C53         C  0.54677222  0.07870918  0.79522340    -0.05700
H54         H  0.55135378  0.06745612  0.85316699     0.08100
H55         H  0.54342571  0.07801816  0.77476936     0.09300
Cu56       Cu  0.56525685  0.10427848  0.86403567     0.44200
Cu57       Cu  0.56099409  0.11485546  0.79804197     0.42000
Cu58       Cu  0.57446958  0.14299408  0.85404111     0.43900
N59         N  0.57142799  0.11997626  0.89452544    -0.34300
N60         N  0.57447555  0.13439578  0.89142780    -0.28600
C61         C  0.57751572  0.14131944  0.91523857    -0.04700
C62         C  0.57635033  0.13063503  0.93407646     0.07600
C63         C  0.57247373  0.11728443  0.92012102     0.01400
H64         H  0.58045861  0.15320631  0.91852231     0.09000
H65         H  0.57037388  0.10628789  0.92796694     0.08100
N66         N  0.57554947  0.14875638  0.81435312    -0.35800
N67         N  0.57087159  0.13899998  0.79426208    -0.27900
C68         C  0.57428872  0.14727793  0.77167425    -0.03200
C69         C  0.58147821  0.16290121  0.77790629     0.05400
C70         C  0.58201629  0.16332137  0.80509069     0.03500
H71         H  0.57205307  0.14230606  0.75215847     0.08600
H72         H  0.58704837  0.17350514  0.81740547     0.07500
N73         N  0.55720692  0.09459181  0.24536488    -0.26900
N74         N  0.56027685  0.09190931  0.22122904    -0.34800
C75         C  0.55614532  0.07696110  0.21880049     0.01400
C76         C  0.54994471  0.06952303  0.24236691     0.07400
C77         C  0.55069204  0.08103483  0.25893332    -0.05700
H78         H  0.55715034  0.07180042  0.20071435     0.08100
H79         H  0.54688477  0.07966531  0.27923119     0.09300
Cu80       Cu  0.56862385  0.10779587  0.19094415     0.44200
Cu81       Cu  0.56288722  0.11721663  0.25664565     0.42000
Cu82       Cu  0.57501875  0.14516406  0.19918795     0.43900
N83         N  0.57412525  0.12288460  0.15971177    -0.34300
N84         N  0.57619839  0.13697661  0.16218301    -0.28600
C85         C  0.57899219  0.14369994  0.13815229    -0.04700
C86         C  0.57864843  0.13319386  0.11983198     0.07600
C87         C  0.57553009  0.12016223  0.13431178     0.01400
H88         H  0.58103489  0.15526908  0.13432323     0.09000
H89         H  0.57407727  0.10932676  0.12698692     0.08100
N90         N  0.57566058  0.15090150  0.23867495    -0.35800
N91         N  0.57161022  0.14135686  0.25917250    -0.27900
C92         C  0.57472939  0.14983680  0.28138020    -0.03200
C93         C  0.58101086  0.16533010  0.27446870     0.05400
C94         C  0.58136727  0.16548061  0.24729336     0.03500
H95         H  0.57287985  0.14509924  0.30110727     0.08600
H96         H  0.58582481  0.17552651  0.23455498     0.07500
N97         N  0.92449472  0.46109378  0.80545275    -0.26900
N98         N  0.92785105  0.45931621  0.82996805    -0.34800
C99         C  0.94314603  0.46421764  0.83189780     0.01400
C100        C  0.94996628  0.46951933  0.80753238     0.07400
C101        C  0.93781315  0.46746515  0.79110755    -0.05700
H102        H  0.94890099  0.46402922  0.84992151     0.08100
H103        H  0.93853704  0.47006283  0.77027576     0.09300
Cu104      Cu  0.91183387  0.45045986  0.86036203     0.44200
Cu105      Cu  0.90145438  0.45367017  0.79411824     0.42000
Cu106      Cu  0.87232027  0.43910259  0.84949297     0.43900
N107        N  0.89539038  0.44230864  0.89013020    -0.34300
N108        N  0.88064717  0.43842029  0.88658463    -0.28600
C109        C  0.87318625  0.43432710  0.90997698    -0.04700
C110        C  0.88384427  0.43562494  0.92899641     0.07600
C111        C  0.89775343  0.44068413  0.91566630     0.01400
H112        H  0.86100369  0.43076647  0.91289939     0.09000
H113        H  0.90892715  0.44343852  0.92396915     0.08100
N114        N  0.86718560  0.43921214  0.80997025    -0.35800
N115        N  0.87727394  0.44405810  0.79015540    -0.27900
C116        C  0.86929212  0.44126387  0.76739897    -0.03200
C117        C  0.85354104  0.43441920  0.77326309     0.05400
C118        C  0.85268078  0.43335458  0.80037537     0.03500
H119        H  0.87457305  0.44381375  0.74803646     0.08600
H120        H  0.84223639  0.42827766  0.81235830     0.07500
N121        N  0.92392406  0.46745995  0.23757606    -0.26900
N122        N  0.92680001  0.46285941  0.21491456    -0.34800
C123        C  0.94201982  0.46739853  0.21326173     0.01400
C124        C  0.94935047  0.47545843  0.23579893     0.07400
C125        C  0.93751401  0.47532751  0.25090952    -0.05700
H126        H  0.94742818  0.46550351  0.19622271     0.08100
H127        H  0.93870579  0.48060491  0.26999147     0.09300
Cu128      Cu  0.91072441  0.45240997  0.18512252     0.44200
Cu129      Cu  0.90115697  0.46206328  0.24759639     0.42000
Cu130      Cu  0.87269781  0.44640497  0.19144300     0.43900
N131        N  0.89552061  0.44604612  0.15370662    -0.34300
N132        N  0.88137266  0.44424661  0.15545648    -0.28600
C133        C  0.87471774  0.44085499  0.13139688    -0.04700
C134        C  0.88528904  0.44049427  0.11380687     0.07600
C135        C  0.89831569  0.44384514  0.12869875     0.01400
H136        H  0.86309353  0.43876567  0.12710292     0.09000
H137        H  0.90917042  0.44487044  0.12185227     0.08100
N138        N  0.86699162  0.44670129  0.23072817    -0.35800
N139        N  0.87684764  0.45206396  0.25079558    -0.27900
C140        C  0.86853309  0.44883337  0.27331834    -0.03200
C141        C  0.85279399  0.44109332  0.26706841     0.05400
C142        C  0.85231390  0.44003045  0.23994863     0.03500
H143        H  0.87357746  0.45147062  0.29282843     0.08600
H144        H  0.84203561  0.43428768  0.22771212     0.07500
N145        N  0.08505941  0.53893378  0.80216602    -0.26900
N146        N  0.08229189  0.53291219  0.82612852    -0.34800
C147        C  0.06710731  0.52262866  0.82882181     0.01400
C148        C  0.05958685  0.52197603  0.80556190     0.07400
C149        C  0.07132167  0.53254504  0.78893543    -0.05700
H150        H  0.06188103  0.51629318  0.84679775     0.08100
H151        H  0.06997977  0.53527031  0.76879490     0.09300
Cu152      Cu  0.09855372  0.53919544  0.85561754     0.44200
Cu153      Cu  0.10805499  0.55546711  0.79077758     0.42000
Cu154      Cu  0.13683863  0.56950229  0.84677883     0.43900
N155        N  0.11416367  0.54786833  0.88618092    -0.34300
N156        N  0.12844723  0.55962212  0.88349176    -0.28600
C157        C  0.13519416  0.56349114  0.90742665    -0.04700
C158        C  0.12453381  0.55357480  0.92588448     0.07600
C159        C  0.11137465  0.54381970  0.91164851     0.01400
H160        H  0.14679278  0.57300749  0.91114237     0.09000
H161        H  0.10030698  0.53488560  0.91929716     0.08100
N162        N  0.14225757  0.57575752  0.80745682    -0.35800
N163        N  0.13236813  0.57093694  0.78738400    -0.27900
C164        C  0.14061672  0.57696824  0.76497402    -0.03200
C165        C  0.15632812  0.58585821  0.77129199     0.05400
C166        C  0.15683232  0.58480824  0.79836866     0.03500
H167        H  0.13559398  0.57467658  0.74544954     0.08600
H168        H  0.16712118  0.58994487  0.81066892     0.07500
N169        N  0.08417781  0.55190549  0.23403159    -0.26900
N170        N  0.08087253  0.54667746  0.20965228    -0.34800
C171        C  0.06572196  0.53617155  0.20777189     0.01400
C172        C  0.05880404  0.53456419  0.23203794     0.07400
C173        C  0.07083168  0.54480334  0.24839803    -0.05700
H174        H  0.06014180  0.53012795  0.18982746     0.08100
H175        H  0.07002115  0.54659882  0.26920797     0.09300
Cu176      Cu  0.09659052  0.55357078  0.17914997     0.44200
Cu177      Cu  0.10743007  0.56781477  0.24451940     0.42000
Cu178      Cu  0.13551423  0.58263460  0.18710162     0.43900
N179        N  0.11224128  0.56122189  0.14851116    -0.34300
N180        N  0.12677691  0.57254257  0.15073430    -0.28600
C181        C  0.13389213  0.57485280  0.12713735    -0.04700
C182        C  0.12321772  0.56429079  0.10949590     0.07600
C183        C  0.10965655  0.55587965  0.12377472     0.01400
H184        H  0.14596094  0.58329410  0.12329352     0.09000
H185        H  0.09863739  0.54659697  0.11676060     0.08100
N186        N  0.14158648  0.58741496  0.22659590    -0.35800
N187        N  0.13191005  0.58218392  0.24700602    -0.27900
C188        C  0.14046388  0.58685114  0.26929081    -0.03200
C189        C  0.15616331  0.59531415  0.26259719     0.05400
C190        C  0.15635867  0.59542499  0.23539511     0.03500
H191        H  0.13562174  0.58392537  0.28895195     0.08600
H192        H  0.16653319  0.60056412  0.22277164     0.07500
C193        C  0.76772201  0.39336148  0.65546703     0.86900
C194        C  0.75828270  0.40187238  0.65866711    -0.53400
C195        C  0.74529128  0.39602861  0.64322559     0.09800
C196        C  0.74286823  0.38226674  0.62646919     0.20700
C197        C  0.75591466  0.37623003  0.66132473    -0.54100
C198        C  0.74273566  0.37053348  0.64636453     0.09900
C199        C  0.77101842  0.39398659  0.62560436    -0.53600
C200        C  0.75792428  0.38818653  0.61034754     0.10500
H201        H  0.76156249  0.41155255  0.67191262     0.15000
H202        H  0.73211721  0.37743668  0.61457358     0.00700
H203        H  0.75732428  0.36967323  0.67719730     0.15300
H204        H  0.78257077  0.39880312  0.61715524     0.15100
C205        C  0.62468733  0.25198142  0.66645732     0.86900
C206        C  0.64212217  0.26366678  0.67125608    -0.53400
C207        C  0.64764030  0.27676429  0.65618805     0.09800
C208        C  0.63549749  0.27667917  0.63722227     0.20700
C209        C  0.61631748  0.26150726  0.67057311    -0.54100
C210        C  0.62200150  0.27440234  0.65497378     0.09900
C211        C  0.62358763  0.24876924  0.63649365    -0.53600
C212        C  0.62929097  0.26176420  0.62114062     0.10500
H213        H  0.64908114  0.26216111  0.68631719     0.15000
H214        H  0.64016826  0.28727173  0.62503827     0.00700
H215        H  0.60685369  0.25834917  0.68450270     0.15300
H216        H  0.61895066  0.23737558  0.62801937     0.15100
C217        C  0.62659743  0.39413239  0.66096190     0.86900
C218        C  0.62042033  0.37685153  0.66708165    -0.53400
C219        C  0.62667324  0.37017803  0.65135039     0.09800
C220        C  0.63862867  0.38140351  0.63128561     0.20700
C221        C  0.64443779  0.40165219  0.66338698    -0.54100
C222        C  0.65071813  0.39499012  0.64773420     0.09900
C223        C  0.62357171  0.39461161  0.63117803    -0.53600
C224        C  0.62986718  0.38792839  0.61560093     0.10500
H225        H  0.61163596  0.37043586  0.68196837     0.15000
H226        H  0.64393814  0.37599588  0.61912860     0.00700
H227        H  0.65143446  0.41135108  0.67626616     0.15300
H228        H  0.61688315  0.39952562  0.62296204     0.15100
C229        C  0.76339616  0.39657054  0.37841824     0.86900
C230        C  0.75128507  0.37947924  0.37279637    -0.53400
C231        C  0.73824256  0.37388021  0.38828900     0.09800
C232        C  0.73881563  0.38566390  0.40840052     0.20700
C233        C  0.75413331  0.40530525  0.37579828    -0.54100
C234        C  0.74131367  0.39958303  0.39175935     0.09900
C235        C  0.76689222  0.39690888  0.40809813    -0.53600
C236        C  0.75403384  0.39122961  0.42384490     0.10500
H237        H  0.75255363  0.37277418  0.35713087     0.15000
H238        H  0.72830089  0.38099601  0.42099749     0.00700
H239        H  0.75740731  0.41504742  0.36256913     0.15300
H240        H  0.77839846  0.40104584  0.41617638     0.15100
C241        C  0.62249452  0.25265603  0.38850609     0.86900
C242        C  0.61344414  0.26157189  0.38559327    -0.53400
C243        C  0.61895955  0.27433193  0.40129376     0.09800
C244        C  0.63298382  0.27707480  0.41811829     0.20700
C245        C  0.63964176  0.26490708  0.38274062    -0.54100
C246        C  0.64500296  0.27789019  0.39796772     0.09900
C247        C  0.62211793  0.24927592  0.41830137    -0.53600
C248        C  0.62760507  0.26206247  0.43388630     0.10500
H249        H  0.60375570  0.25821952  0.37211078     0.15000
H250        H  0.63749212  0.28755112  0.43046218     0.00700
H251        H  0.64639222  0.26391920  0.36673717     0.15300
H252        H  0.61799482  0.23785578  0.42653280     0.15100
C253        C  0.62005547  0.39213717  0.38363039     0.86900
C254        C  0.63768579  0.39951982  0.37851300    -0.53400
C255        C  0.64479363  0.39349482  0.39370312     0.09800
C256        C  0.63367079  0.38057598  0.41243417     0.20700
C257        C  0.61360382  0.37466954  0.37950541    -0.54100
C258        C  0.62069272  0.36862706  0.39477212     0.09900
C259        C  0.61868404  0.39390532  0.41366377    -0.53600
C260        C  0.62584496  0.38779476  0.42879885     0.10500
H261        H  0.64399598  0.40881363  0.36441739     0.15000
H262        H  0.63965005  0.37558961  0.42397189     0.00700
H263        H  0.60413560  0.36770281  0.36608424     0.15300
H264        H  0.61262863  0.39938990  0.42229479     0.15100
C265        C  0.38442809  0.63251068  0.65792891     0.86900
C266        C  0.38965584  0.64949308  0.66532124    -0.53400
C267        C  0.38293631  0.65596780  0.65001176     0.09800
C268        C  0.37228462  0.64519861  0.62836040     0.20700
C269        C  0.36645640  0.62421847  0.65901810    -0.54100
C270        C  0.36016164  0.63086309  0.64328115     0.09900
C271        C  0.38844403  0.63316020  0.62841297    -0.53600
C272        C  0.38209569  0.63984448  0.61300879     0.10500
H273        H  0.39689314  0.65531910  0.68225613     0.15000
H274        H  0.36708918  0.65060968  0.61579330     0.00700
H275        H  0.35941410  0.61412547  0.67122261     0.15300
H276        H  0.39581132  0.62898469  0.62024587     0.15100
C277        C  0.38361462  0.77474115  0.65525672     0.86900
C278        C  0.36568095  0.76530168  0.65837479    -0.53400
C279        C  0.35877680  0.75241211  0.64292478     0.09800
C280        C  0.37033815  0.74997964  0.62631549     0.20700
C281        C  0.38922593  0.76304852  0.66117561    -0.54100
C282        C  0.38198466  0.74992374  0.64634058     0.09900
C283        C  0.38636616  0.77793884  0.62536165    -0.53600
C284        C  0.37934337  0.76492730  0.61010245     0.10500
H285        H  0.35910096  0.76857986  0.67145095     0.15000
H286        H  0.36469764  0.73931154  0.61435473     0.00700
H287        H  0.39729025  0.76452852  0.67693277     0.15300
H288        H  0.39318678  0.78937722  0.61693495     0.15100
C289        C  0.24335831  0.63370094  0.65450677     0.86900
C290        C  0.25415009  0.62676320  0.65850453    -0.53400
C291        C  0.26714784  0.63338791  0.64292721     0.09800
C292        C  0.26818212  0.64629583  0.62493173     0.20700
C293        C  0.25395454  0.65117991  0.65920380    -0.54100
C294        C  0.26691488  0.65778370  0.64350707     0.09900
C295        C  0.23991954  0.63221317  0.62455983    -0.53600
C296        C  0.25296835  0.63875625  0.60903438     0.10500
H297        H  0.25168546  0.61743820  0.67227100     0.15000
H298        H  0.27895683  0.65181578  0.61292460     0.00700
H299        H  0.25133533  0.65772444  0.67339846     0.15300
H300        H  0.22830492  0.62618377  0.61629515     0.15100
C301        C  0.38693135  0.63600001  0.38154095     0.86900
C302        C  0.36898157  0.62785494  0.37913804    -0.53400
C303        C  0.36222526  0.63390430  0.39523117     0.09800
C304        C  0.37400898  0.64751525  0.41192103     0.20700
C305        C  0.39242334  0.65325108  0.37600301    -0.54100
C306        C  0.38535388  0.65914689  0.39168060     0.09900
C307        C  0.39001105  0.63529265  0.41114463    -0.53600
C308        C  0.38330596  0.64138721  0.42699406     0.10500
H309        H  0.36231472  0.61837075  0.36568497     0.15000
H310        H  0.36859365  0.65251593  0.42482207     0.00700
H311        H  0.40012021  0.65973090  0.35982149     0.15300
H312        H  0.39699082  0.63062009  0.41916812     0.15100
C313        C  0.38472628  0.77751812  0.37772444     0.86900
C314        C  0.39063382  0.76601458  0.37223970    -0.53400
C315        C  0.38325068  0.75275971  0.38699291     0.09800
C316        C  0.37111142  0.75247937  0.40626195     0.20700
C317        C  0.36689351  0.76794044  0.37363485    -0.54100
C318        C  0.35983528  0.75484791  0.38876269     0.09900
C319        C  0.38679832  0.78040425  0.40772114    -0.53600
C320        C  0.37965299  0.76726655  0.42275384     0.10500
H321        H  0.39906379  0.76775979  0.35697280     0.15000
H322        H  0.36525525  0.74171303  0.41806090     0.00700
H323        H  0.36051010  0.77115231  0.35993591     0.15300
H324        H  0.39321136  0.79176687  0.41644063     0.15100
C325        C  0.24483251  0.63582375  0.37595892     0.86900
C326        C  0.25543265  0.65337051  0.37187594    -0.53400
C327        C  0.26799530  0.65981753  0.38828417     0.09800
C328        C  0.26892579  0.64818404  0.40708933     0.20700
C329        C  0.25586519  0.62902018  0.37276364    -0.54100
C330        C  0.26844762  0.63545727  0.38939247     0.09900
C331        C  0.24073914  0.63393592  0.40574189    -0.53600
C332        C  0.25339621  0.64034014  0.42203750     0.10500
H333        H  0.25310055  0.66009354  0.35751707     0.15000
H334        H  0.27938463  0.65375917  0.41973294     0.00700
H335        H  0.25369603  0.61976962  0.35915608     0.15300
H336        H  0.22902543  0.62778667  0.41357875     0.15100
N337        N  0.47977500  0.56811090  0.79997717    -0.26900
N338        N  0.48759197  0.57343533  0.82221279    -0.34800
C339        C  0.49821851  0.56884495  0.82453843     0.01400
C340        C  0.49719421  0.56005512  0.80290040     0.07400
C341        C  0.48530391  0.55973893  0.78762098    -0.05700
H342        H  0.50584705  0.57140653  0.84132968     0.08100
H343        H  0.48107135  0.55394366  0.76895437     0.09300
Cu344      Cu  0.48298773  0.58524819  0.85086846     0.44200
Cu345      Cu  0.46219266  0.57323253  0.78882182     0.42000
Cu346      Cu  0.45114141  0.59087452  0.84396894     0.43900
N347        N  0.47429889  0.59176083  0.88221842    -0.34300
N348        N  0.46188642  0.59342942  0.88020949    -0.28600
C349        C  0.45791215  0.59588500  0.90441633    -0.04700
C350        C  0.46841108  0.59570182  0.92242812     0.07600
C351        C  0.47863674  0.59310053  0.90754877     0.01400
H352        H  0.44787929  0.59719141  0.90864449     0.09000
H353        H  0.48811322  0.59155920  0.91468285     0.08100
N354        N  0.44294249  0.58818081  0.80557678    -0.35800
N355        N  0.44662393  0.58199917  0.78565092    -0.27900
C356        C  0.43925190  0.58295075  0.76384481    -0.03200
C357        C  0.43058566  0.59001392  0.77051076     0.05400
C358        C  0.43325936  0.59311542  0.79706345     0.03500
H359        H  0.44035842  0.57906175  0.74450377     0.08600
H360        H  0.42874697  0.59886173  0.80938006     0.07500
N361        N  0.48103410  0.57234406  0.23476202    -0.26900
N362        N  0.48715221  0.57548459  0.21087069    -0.34800
C363        C  0.49722385  0.57022908  0.20839330     0.01400
C364        C  0.49749644  0.56319988  0.23171522     0.07400
C365        C  0.48707010  0.56473642  0.24817022    -0.05700
H366        H  0.50329331  0.57081912  0.19031541     0.08100
H367        H  0.48387333  0.56037940  0.26807387     0.09300
Cu368      Cu  0.48024049  0.58454622  0.18065628     0.44200
Cu369      Cu  0.46451377  0.57870213  0.24574454     0.42000
Cu370      Cu  0.45016236  0.59286765  0.18844229     0.43900
N371        N  0.47072629  0.58990017  0.14902385    -0.34300
N372        N  0.45906366  0.59274687  0.15122363    -0.28600
C373        C  0.45510665  0.59517124  0.12689085    -0.04700
C374        C  0.46487968  0.59376692  0.10871127     0.07600
C375        C  0.47457647  0.59041548  0.12358215     0.01400
H376        H  0.44586185  0.59773579  0.12275980     0.09000
H377        H  0.48366013  0.58825426  0.11650915     0.08100
N378        N  0.44499318  0.59335444  0.22820796    -0.35800
N379        N  0.44990668  0.58841730  0.24842923    -0.27900
C380        C  0.44438128  0.59117904  0.27086599    -0.03200
C381        C  0.43561563  0.59813853  0.26447928     0.05400
C382        C  0.43628993  0.59931317  0.23733045     0.03500
H383        H  0.44671107  0.58843623  0.29039431     0.08600
H384        H  0.43095372  0.60428576  0.22497865     0.07500
N385        N  0.55959043  0.48764348  0.80095278    -0.26900
N386        N  0.56173920  0.49279769  0.82539554    -0.34800
C387        C  0.55797270  0.50397606  0.82738120     0.01400
C388        C  0.55291221  0.50596036  0.80313706     0.07400
C389        C  0.55399383  0.49535954  0.78669406    -0.05700
H390        H  0.55820788  0.50972832  0.84556805     0.08100
H391        H  0.55094985  0.49341775  0.76604906     0.09300
Cu392      Cu  0.56760777  0.48334538  0.85627038     0.44200
Cu393      Cu  0.56511129  0.47053016  0.79014571     0.42000
Cu394      Cu  0.57493024  0.45259707  0.84733387     0.43900
N395        N  0.56999510  0.47144631  0.88732399    -0.34300
N396        N  0.57266241  0.45976726  0.88463759    -0.28600
C397        C  0.57315854  0.45429369  0.90877775    -0.04700
C398        C  0.57052230  0.46299563  0.92728931     0.07600
C399        C  0.56857609  0.47371836  0.91290100     0.01400
H400        H  0.57500945  0.44460138  0.91251211     0.09000
H401        H  0.56618426  0.48251588  0.92033256     0.08100
N402        N  0.57773594  0.44929562  0.80771408    -0.35800
N403        N  0.57418978  0.45537814  0.78736795    -0.27900
C404        C  0.57814704  0.45083802  0.76502608    -0.03200
C405        C  0.58450855  0.44157553  0.77166234     0.05400
C406        C  0.58403920  0.44088151  0.79883258     0.03500
H407        H  0.57677068  0.45428384  0.74541985     0.08600
H408        H  0.58810372  0.43480290  0.81139950     0.07500
N409        N  0.54573517  0.47794315  0.23920934    -0.26900
N410        N  0.54551196  0.48101655  0.21396154    -0.34800
C411        C  0.54120839  0.49171639  0.21090395     0.01400
C412        C  0.53844496  0.49576814  0.23535729     0.07400
C413        C  0.54130086  0.48673855  0.25311766    -0.05700
H414        H  0.54037120  0.49634614  0.19204064     0.08100
H415        H  0.54081773  0.48701774  0.27438116     0.09300
Cu416      Cu  0.55175862  0.47165161  0.18394556     0.44200
Cu417      Cu  0.55360174  0.46264062  0.25065864     0.42000
Cu418      Cu  0.56643663  0.44674405  0.19310814     0.43900
N419        N  0.55808348  0.46303853  0.15288222    -0.34300
N420        N  0.56367934  0.45350669  0.15543803    -0.28600
C421        C  0.56670192  0.45008782  0.13116636    -0.04700
C422        C  0.56273942  0.45796903  0.11278600     0.07600
C423        C  0.55734146  0.46602411  0.12739621     0.01400
H424        H  0.57143967  0.44253693  0.12723346     0.09000
H425        H  0.55316782  0.47356745  0.12017294     0.08100
N426        N  0.56816003  0.44292238  0.23320449    -0.35800
N427        N  0.56361992  0.44826666  0.25330891    -0.27900
C428        C  0.56718722  0.44355825  0.27592162    -0.03200
C429        C  0.57434440  0.43497235  0.26983862     0.05400
C430        C  0.57471407  0.43480735  0.24263131     0.03500
H431        H  0.56506139  0.44650887  0.29539025     0.08600
H432        H  0.57961976  0.42938194  0.23042539     0.07500
C433        C  0.56482968  0.46493738  0.99617334     0.20700
C434        C  0.56059032  0.47001443  0.01870753    -0.39200
C435        C  0.56256410  0.46416762  0.04255582     0.19700
C436        C  0.56835007  0.45403313  0.04406195     0.22300
C437        C  0.57257474  0.44888003  0.02134213    -0.39700
C438        C  0.57054751  0.45473079  0.99727384     0.21100
N439        N  0.56412138  0.46900212  0.97129071    -0.33000
C440        C  0.56936544  0.46134376  0.95614699    -0.10500
C441        C  0.57346834  0.45224691  0.97160193    -0.29300
N442        N  0.56918804  0.45036370  0.06936515    -0.45900
C443        C  0.56387180  0.45826532  0.08382762    -0.05200
C444        C  0.55963462  0.46695435  0.06771544    -0.22600
H445        H  0.55612366  0.47799857  0.01773682     0.19300
H446        H  0.57711174  0.44095959  0.02232678     0.18000
H447        H  0.57808427  0.44496727  0.96500606     0.14300
H448        H  0.55508029  0.47441559  0.07354147     0.14200
H449        H  0.56022873  0.47653615  0.96509271     0.32400
H450        H  0.57314548  0.44302288  0.07631864     0.35100
C451        C  0.51272157  0.53840569  0.25069658     0.20700
C452        C  0.51354462  0.52652077  0.26461780    -0.39200
C453        C  0.52291995  0.52106419  0.25312880     0.19700
C454        C  0.53072439  0.52703951  0.22959785     0.22300
C455        C  0.52996543  0.53885531  0.21585476    -0.39700
C456        C  0.52071011  0.54426581  0.22729272     0.21100
N457        N  0.50381552  0.54487031  0.25618635    -0.33000
C458        C  0.50615820  0.55477201  0.23593785    -0.10500
C459        C  0.51673349  0.55475626  0.21775858    -0.29300
N460        N  0.53774385  0.51923269  0.22146402    -0.45900
C461        C  0.53445972  0.50806144  0.23970845    -0.05200
C462        C  0.52537756  0.50891255  0.26008854    -0.13600
H463        H  0.50698544  0.52155480  0.28253313     0.19300
H464        H  0.53573845  0.54315083  0.19707715     0.18000
H465        H  0.52051258  0.56104959  0.19933135     0.14300
H466        H  0.52039544  0.50109843  0.27666139     0.14200
H467        H  0.49612299  0.54219907  0.27198762     0.32400
H468        H  0.54395203  0.52108833  0.20390022     0.35100
C469        C  0.52506697  0.54694958  0.80513416     0.20700
C470        C  0.53772230  0.54602256  0.81559210    -0.39200
C471        C  0.54017697  0.53437629  0.80521839     0.19700
C472        C  0.53081232  0.52438348  0.78575612     0.22300
C473        C  0.51807255  0.52532630  0.77525036    -0.39700
C474        C  0.51557201  0.53703821  0.78570969     0.21100
N475        N  0.51986912  0.55645640  0.81295393    -0.33000
C476        C  0.50691087  0.55271044  0.79854710    -0.10500
C477        C  0.50387692  0.54066889  0.78112196    -0.29300
N478        N  0.53488883  0.51351166  0.78093311    -0.45900
C479        C  0.54672177  0.51652052  0.79782534    -0.05200
C480        C  0.55040864  0.52953661  0.81303255    -0.22600
H481        H  0.54481034  0.55348541  0.83137425     0.19300
H482        H  0.51040237  0.51725206  0.76063136     0.18000
H483        H  0.49414520  0.53497035  0.76771002     0.14300
H484        H  0.55879179  0.53423857  0.82890731     0.14200
H485        H  0.52475597  0.56482656  0.82768061     0.32400
H486        H  0.52926401  0.50402832  0.76837613     0.35100
C487        C  0.46097000  0.59736210  0.99125691     0.20700
C488        C  0.45282831  0.59761923  0.01388683    -0.39200
C489        C  0.45930996  0.59685374  0.03819629     0.19700
C490        C  0.47280466  0.59587520  0.03962011     0.22300
C491        C  0.48091026  0.59565471  0.01714235    -0.39700
C492        C  0.47448060  0.59643756  0.99302251     0.21100
N493        N  0.45711872  0.59752346  0.96582173    -0.33000
C494        C  0.46827770  0.59665298  0.95145872    -0.10500
C495        C  0.47929990  0.59601580  0.96781584    -0.29300
N496        N  0.47643469  0.59486083  0.06470464    -0.45900
C497        C  0.46522869  0.59518230  0.07967942    -0.05200
C498        C  0.45432107  0.59648965  0.06384752    -0.22600
H499        H  0.44217585  0.59819725  0.01265783     0.19300
H500        H  0.49138336  0.59474401  0.01835320     0.18000
H501        H  0.48935911  0.59506569  0.96210299     0.14300
H502        H  0.44401781  0.59682005  0.07018314     0.14200
H503        H  0.44738148  0.59791113  0.95872590     0.32400
H504        H  0.48596206  0.59387893  0.07113624     0.35100
C505        C  0.29767834  0.69895210  0.37531226     0.20700
C506        C  0.30868350  0.71146077  0.36002513    -0.39200
C507        C  0.32086693  0.72361608  0.37409090     0.19700
C508        C  0.32191634  0.72321934  0.40124857     0.22300
C509        C  0.31099254  0.71078363  0.41642609    -0.39700
C510        C  0.29892556  0.69870376  0.40244050     0.21100
N511        N  0.28583994  0.68539658  0.36671371    -0.33000
C512        C  0.27977631  0.67646560  0.38855804    -0.10500
C513        C  0.28757089  0.68443749  0.41115385    -0.29300
N514        N  0.33534869  0.73510019  0.40979309    -0.45900
C515        C  0.34308975  0.74318480  0.38807825    -0.05200
C516        C  0.33434804  0.73651781  0.36534841    -0.22600
H517        H  0.30818997  0.71141383  0.33872832     0.19300
H518        H  0.31225268  0.71020072  0.43751499     0.18000
H519        H  0.28568183  0.68010287  0.43118150     0.14300
H520        H  0.33802519  0.73975783  0.34513003     0.14200
H521        H  0.28273603  0.68207487  0.34715678     0.32400
H522        H  0.33946512  0.73700997  0.42915238     0.35100
C523        C  0.40139202  0.62264253  0.32770285     0.20700
C524        C  0.40425398  0.62060303  0.30131646    -0.39200
C525        C  0.41336798  0.61350235  0.29735333     0.19700
C526        C  0.41911197  0.60871334  0.31805477     0.22300
C527        C  0.41620670  0.61071284  0.34440081    -0.39700
C528        C  0.40718947  0.61789943  0.34833569     0.21100
N529        N  0.39344154  0.62944909  0.33679028    -0.33000
C530        C  0.39426265  0.62919230  0.36347206    -0.10500
C531        C  0.40272513  0.62194255  0.37128274    -0.29300
N532        N  0.42767670  0.60254851  0.30909553    -0.45900
C533        C  0.42743206  0.60344227  0.28245413    -0.05200
C534        C  0.41859828  0.61019573  0.27442813    -0.22600
H535        H  0.39988748  0.62444230  0.28507606     0.19300
H536        H  0.42081240  0.60713559  0.36065785     0.18000
H537        H  0.40547422  0.61986313  0.39093830     0.14300
H538        H  0.41639060  0.61250359  0.25450847     0.14200
H539        H  0.38794775  0.63418098  0.32555642     0.32400
H540        H  0.43344360  0.59814358  0.32044636     0.35100
C541        C  0.39278254  0.69786233  0.37903006     0.20700
C542        C  0.40147416  0.71404440  0.37509419    -0.39200
C543        C  0.39302877  0.72204730  0.37729522     0.19700
C544        C  0.37721257  0.71437002  0.38282439     0.22300
C545        C  0.36861208  0.69837485  0.38658467    -0.39700
C546        C  0.37699127  0.69051204  0.38465240     0.21100
N547        N  0.39800334  0.68759752  0.37978528    -0.33000
C548        C  0.38539092  0.67381516  0.38640450    -0.10500
C549        C  0.37214034  0.67523775  0.38932811    -0.29300
N550        N  0.37194468  0.72434038  0.38580000    -0.45900
C551        C  0.38439496  0.73864501  0.38247187    -0.05200
C552        C  0.39781297  0.73775502  0.37667352    -0.22600
H553        H  0.41391411  0.71999302  0.37146238     0.19300
H554        H  0.35634467  0.69252957  0.39166825     0.18000
H555        H  0.36050610  0.66631716  0.39479452     0.14300
H556        H  0.40954819  0.74727250  0.37388911     0.14200
H557        H  0.40946038  0.68991499  0.37712059     0.32400
H558        H  0.36051479  0.72149908  0.39040306     0.35100
C559        C  0.32426864  0.62863346  0.40786874     0.20700
C560        C  0.31351969  0.63119995  0.42180710    -0.39200
C561        C  0.30054507  0.62925481  0.40750284     0.19700
C562        C  0.29828143  0.62500423  0.38126878     0.22300
C563        C  0.30904350  0.62229816  0.36730809    -0.39700
C564        C  0.32213865  0.62428653  0.38166311     0.21100
N565        N  0.33832033  0.63148810  0.41632759    -0.33000
C566        C  0.34539725  0.62909053  0.39543246    -0.10500
C567        C  0.33555607  0.62433613  0.37348738    -0.29300
N568        N  0.28585211  0.62563310  0.37157334    -0.45900
C569        C  0.28041563  0.63058218  0.39177224    -0.05200
C570        C  0.28916906  0.63266658  0.41451339    -0.22600
H571        H  0.31554531  0.63525147  0.44196041     0.19300
H572        H  0.30773436  0.61962479  0.34650542     0.18000
H573        H  0.33836774  0.62252382  0.35368797     0.14300
H574        H  0.28800247  0.63696271  0.43339459     0.14200
H575        H  0.34305550  0.63555548  0.43495859     0.32400
H576        H  0.28203681  0.62390840  0.35206713     0.35100
C577        C  0.24457649  0.63499123  0.53944940     0.20700
C578        C  0.23558840  0.63201598  0.51640780    -0.39200
C579        C  0.24383962  0.63508734  0.49248892     0.19700
C580        C  0.25974120  0.64063568  0.49177697     0.22300
C581        C  0.26865164  0.64347739  0.51467336    -0.39700
C582        C  0.26046214  0.64049169  0.53842906     0.21100
N583        N  0.23973759  0.63352551  0.56464109    -0.33000
C584        C  0.25269702  0.63820687  0.57972158    -0.10500
C585        C  0.26580761  0.64257595  0.56388199    -0.29300
N586        N  0.26501498  0.64314408  0.46693130    -0.45900
C587        C  0.25244304  0.63917294  0.45130874    -0.05200
C588        C  0.23894457  0.63399677  0.46665065    -0.22600
H589        H  0.22317244  0.62785766  0.51705789     0.19300
H590        H  0.28112920  0.64796676  0.51403261     0.18000
H591        H  0.27775426  0.64682973  0.56985293     0.14300
H592        H  0.22719378  0.63021422  0.45995650     0.14200
H593        H  0.22836498  0.62981729  0.57101169     0.32400
H594        H  0.27659565  0.64743242  0.46136850     0.35100
C595        C  0.38334545  0.77353104  0.54053304     0.20700
C596        C  0.38766845  0.78286416  0.51779761    -0.39200
C597        C  0.38361307  0.77493663  0.49368984     0.19700
C598        C  0.37579897  0.75896449  0.49236857     0.22300
C599        C  0.37142734  0.74963507  0.51507832    -0.39700
C600        C  0.37553664  0.75756021  0.53915646     0.21100
N601        N  0.38588330  0.77822916  0.56576331    -0.33000
C602        C  0.37963566  0.76514600  0.58071307    -0.10500
C603        C  0.37307635  0.75202068  0.56463177    -0.29300
N604        N  0.37340610  0.75423012  0.46719579    -0.45900
C605        C  0.37976312  0.76727263  0.45214210    -0.05200
C606        C  0.38622875  0.78043799  0.46813900    -0.22600
H607        H  0.39380526  0.79537419  0.51880278     0.19300
H608        H  0.36532676  0.73712297  0.51406988     0.18000
H609        H  0.36722068  0.73997893  0.57048421     0.14300
H610        H  0.39207691  0.79245068  0.46207324     0.14200
H611        H  0.39140232  0.78967937  0.57221040     0.32400
H612        H  0.36786193  0.74274094  0.46097941     0.35100
C613        C  0.31959788  0.72261973  0.65504752     0.20700
C614        C  0.30751247  0.71109688  0.67043999    -0.39200
C615        C  0.29656643  0.69780883  0.65679486     0.19700
C616        C  0.29770785  0.69618665  0.62995118     0.22300
C617        C  0.30959228  0.70769870  0.61461126    -0.39700
C618        C  0.32043585  0.72089603  0.62815416     0.21100
N619        N  0.33263766  0.73520774  0.66361372    -0.33000
C620        C  0.34185767  0.74125276  0.64202660    -0.10500
C621        C  0.33445024  0.73280586  0.61956453    -0.29300
N622        N  0.28699748  0.68201485  0.62195456    -0.45900
C623        C  0.27881513  0.67442671  0.64371279    -0.05200
C624        C  0.28432012  0.68394883  0.66588581    -0.22600
H625        H  0.30713183  0.71203801  0.69162479     0.19300
H626        H  0.31083314  0.70609829  0.59384951     0.18000
H627        H  0.33932417  0.73426407  0.59997188     0.14300
H628        H  0.28053617  0.68082775  0.68608838     0.14200
H629        H  0.33573803  0.73850932  0.68317717     0.32400
H630        H  0.28562053  0.67764857  0.60285903     0.35100
C631        C  0.39701473  0.61639773  0.71041808     0.20700
C632        C  0.39991308  0.61386377  0.73652488    -0.39200
C633        C  0.40766717  0.60531931  0.73971101     0.19700
C634        C  0.41203062  0.59954349  0.71857370     0.22300
C635        C  0.40899681  0.60196773  0.69247508    -0.39700
C636        C  0.40146353  0.61072184  0.68929488     0.21100
N637        N  0.39049755  0.62476647  0.70206212    -0.33000
C638        C  0.39100487  0.62467893  0.67535421    -0.10500
C639        C  0.39767098  0.61585505  0.66676355    -0.29300
N640        N  0.42022669  0.59277680  0.72678653    -0.45900
C641        C  0.42124076  0.59440938  0.75334997    -0.05200
C642        C  0.41338358  0.60202686  0.76208522    -0.22600
H643        H  0.39683065  0.61863209  0.75310703     0.19300
H644        H  0.41272896  0.59782681  0.67583269     0.18000
H645        H  0.39949328  0.61331366  0.64683039     0.14300
H646        H  0.41256894  0.60537681  0.78201811     0.14200
H647        H  0.38612437  0.63036656  0.71379442     0.32400
H648        H  0.42539012  0.58797897  0.71494838     0.35100
C649        C  0.38408909  0.64814663  0.49635700     0.20700
C650        C  0.38254371  0.65503684  0.51936158    -0.39200
C651        C  0.38379542  0.64848107  0.54307431     0.19700
C652        C  0.38647391  0.63607185  0.54384018     0.22300
C653        C  0.38803856  0.62918187  0.52080957    -0.39700
C654        C  0.38676501  0.63573435  0.49706429     0.21100
N655        N  0.38276136  0.65186773  0.47141874    -0.33000
C656        C  0.38461780  0.64177239  0.45604803    -0.10500
C657        C  0.38723303  0.63157402  0.47136689    -0.29300
N658        N  0.38667943  0.63168846  0.56882994    -0.45900
C659        C  0.38396529  0.64129473  0.58406780    -0.05200
C660        C  0.38215995  0.65195432  0.56867125    -0.22600
H661        H  0.38022234  0.66459771  0.51882989     0.19300
H662        H  0.38989360  0.61932430  0.52133903     0.18000
H663        H  0.38877371  0.62209042  0.46468016     0.14300
H664        H  0.37974247  0.66090419  0.57521241     0.14200
H665        H  0.38066627  0.66071799  0.46534634     0.32400
H666        H  0.38802244  0.62238492  0.57501459     0.35100
C667        C  0.37515983  0.71134854  0.65419142     0.20700
C668        C  0.36635772  0.69525799  0.65218181    -0.39200
C669        C  0.37448717  0.68725697  0.65624372     0.19700
C670        C  0.39024326  0.69458907  0.66208706     0.22300
C671        C  0.39909145  0.71084341  0.66447450    -0.39700
C672        C  0.39089333  0.71895564  0.66027534     0.21100
N673        N  0.37021839  0.72142416  0.64903836    -0.33000
C674        C  0.38278637  0.73569119  0.65178293    -0.10500
C675        C  0.39593918  0.73469384  0.65917106    -0.29300
N676        N  0.39538320  0.68425336  0.66238332    -0.45900
C677        C  0.38276494  0.67042199  0.65623318    -0.05200
C678        C  0.36956230  0.67188606  0.65271589    -0.22600
H679        H  0.35417158  0.68942102  0.64662975     0.19300
H680        H  0.41150860  0.71675614  0.66824651     0.18000
H681        H  0.40767785  0.74414662  0.66211970     0.14300
H682        H  0.35802230  0.66300221  0.64682793     0.14200
H683        H  0.35891498  0.71868789  0.64366963     0.32400
H684        H  0.40686246  0.68660530  0.66481097     0.35100
C685        C  0.32099120  0.62223375  0.65430034     0.20700
C686        C  0.30851922  0.62106275  0.66950209    -0.39200
C687        C  0.29750757  0.62351395  0.65586173     0.19700
C688        C  0.29894810  0.62694756  0.62921216     0.22300
C689        C  0.31132575  0.62808795  0.61408934    -0.39700
C690        C  0.32224231  0.62561781  0.62763976     0.21100
N691        N  0.33387191  0.62218748  0.66297270    -0.33000
C692        C  0.34340338  0.62584141  0.64171088    -0.10500
C693        C  0.33642875  0.62783242  0.61931623    -0.29300
N694        N  0.28791777  0.63016687  0.62124210    -0.45900
C695        C  0.27931268  0.62883512  0.64286959    -0.05200
C696        C  0.28480220  0.62451093  0.66487960    -0.22600
H697        H  0.30780356  0.61905780  0.69055027     0.19300
H698        H  0.31275728  0.63140775  0.59351136     0.18000
H699        H  0.34158282  0.63166862  0.59999433     0.14300
H700        H  0.28070907  0.62328244  0.68499188     0.14200
H701        H  0.33659960  0.62116586  0.68248528     0.32400
H702        H  0.28665112  0.63352876  0.60232433     0.35100
C703        C  0.59962090  0.40982324  0.35184983     0.20700
C704        C  0.59072857  0.41731543  0.35001056    -0.39200
C705        C  0.58787330  0.42066734  0.32436382     0.19700
C706        C  0.59346695  0.41684616  0.30229791     0.22300
C707        C  0.60234985  0.40937498  0.30414129    -0.39700
C708        C  0.60515942  0.40599829  0.32974426     0.21100
N709        N  0.60399652  0.40544913  0.37390095    -0.33000
C710        C  0.61240410  0.39874326  0.36580343    -0.10500
C711        C  0.61328878  0.39886187  0.33833069    -0.29300
N712        N  0.58925236  0.42131825  0.28022395    -0.45900
C713        C  0.58092751  0.42809507  0.28817391    -0.05200
C714        C  0.57980962  0.42789831  0.31562631    -0.22600
H715        H  0.58638741  0.42034257  0.36727157     0.19300
H716        H  0.60674739  0.40640150  0.28689075     0.18000
H717        H  0.61922655  0.39440290  0.32630392     0.14300
H718        H  0.57396672  0.43248621  0.32758138     0.14200
H719        H  0.60129715  0.40701306  0.39311224     0.32400
H720        H  0.59200918  0.41993492  0.26092112     0.35100
C721        C  0.60991620  0.30414299  0.38658372     0.20700
C722        C  0.60932224  0.31539378  0.37042281    -0.39200
C723        C  0.61122058  0.32872254  0.38338115     0.19700
C724        C  0.61367361  0.33066318  0.41028285     0.22300
C725        C  0.61413380  0.31944003  0.42635566    -0.39700
C726        C  0.61215259  0.30617103  0.41350701     0.21100
N727        N  0.61044862  0.29143772  0.37890932    -0.33000
C728        C  0.61328080  0.28557917  0.40111932    -0.10500
C729        C  0.61412949  0.29433290  0.42304709    -0.29300
N730        N  0.61674391  0.34483336  0.41760983    -0.45900
C731        C  0.61620456  0.35207591  0.39534927    -0.05200
C732        C  0.61259630  0.34235304  0.37353597    -0.22600
H733        H  0.60820130  0.31419064  0.34923644     0.19300
H734        H  0.61667585  0.32127023  0.44719752     0.18000
H735        H  0.61724883  0.29305374  0.44297213     0.14300
H736        H  0.61208831  0.34522900  0.35311581     0.14200
H737        H  0.61042389  0.28787434  0.35957334     0.32400
H738        H  0.61951081  0.34946035  0.43655904     0.35100
C739        C  0.69954291  0.34149483  0.38745278     0.20700
C740        C  0.68361981  0.33384838  0.39337250    -0.39200
C741        C  0.67585707  0.31776157  0.39089713     0.19700
C742        C  0.68321773  0.30972477  0.38273758     0.22300
C743        C  0.69928221  0.31746483  0.37652553    -0.39700
C744        C  0.70719205  0.33372472  0.37931529     0.21100
N745        N  0.70955867  0.35660736  0.39052676    -0.33000
C746        C  0.72387104  0.35872676  0.38463223    -0.10500
C747        C  0.72288800  0.34473011  0.37706880    -0.29300
N748        N  0.67316047  0.29431625  0.38343028    -0.45900
C749        C  0.65947866  0.29272685  0.39254661    -0.05200
C750        C  0.66076408  0.30712400  0.39709504    -0.22600
H751        H  0.67780679  0.33995789  0.40042939     0.19300
H752        H  0.70526576  0.31127443  0.37084145     0.18000
H753        H  0.73241741  0.34274085  0.37210092     0.14300
H754        H  0.65188598  0.30956048  0.40433913     0.14200
H755        H  0.70675591  0.36492677  0.39683898     0.32400
H756        H  0.67558205  0.28547590  0.37894075     0.35100
C757        C  0.71073129  0.40809679  0.38009898     0.20700
C758        C  0.69862837  0.40783358  0.36499833    -0.39200
C759        C  0.68533132  0.40541113  0.37913654     0.19700
C760        C  0.68421676  0.40333141  0.40619292     0.22300
C761        C  0.69632231  0.40381088  0.42124684    -0.39700
C762        C  0.70954397  0.40624198  0.40719539     0.21100
N763        N  0.72341786  0.40772939  0.37118387    -0.33000
C764        C  0.73008536  0.40532846  0.39276130    -0.10500
C765        C  0.72191980  0.40468330  0.41553858    -0.29300
N766        N  0.66985799  0.39939111  0.41469603    -0.45900
C767        C  0.66169273  0.39900285  0.39302751    -0.05200
C768        C  0.67097760  0.40288743  0.37042903    -0.22600
H769        H  0.69914033  0.40853257  0.34371221     0.19300
H770        H  0.69511922  0.40143969  0.44220056     0.18000
H771        H  0.72380574  0.40174888  0.43524377     0.14300
H772        H  0.66739146  0.40279687  0.35025381     0.14200
H773        H  0.72634808  0.40739854  0.35152444     0.32400
H774        H  0.66570946  0.39661487  0.43401970     0.35100
C775        C  0.60801442  0.41380884  0.69195974     0.20700
C776        C  0.59986998  0.42205926  0.69313476    -0.39200
C777        C  0.59727330  0.42591647  0.71846469     0.19700
C778        C  0.60235418  0.42179864  0.74088604     0.22300
C779        C  0.61054234  0.41358123  0.73969578    -0.39700
C780        C  0.61318345  0.40977284  0.71432981     0.21100
N781        N  0.61196069  0.40887099  0.67023425    -0.33000
C782        C  0.61975629  0.40157000  0.67869156    -0.10500
C783        C  0.62075793  0.40197558  0.70617440    -0.29300
N784        N  0.59841913  0.42680783  0.76256112    -0.45900
C785        C  0.59082462  0.43423340  0.75394061    -0.05200
C786        C  0.58989413  0.43392783  0.72649442    -0.22600
H787        H  0.59588503  0.42527231  0.67559611     0.19300
H788        H  0.61458004  0.41041640  0.75722462     0.18000
H789        H  0.62629362  0.39717788  0.71847869     0.14300
H790        H  0.58452590  0.43885756  0.71409934     0.14200
H791        H  0.60945092  0.41062661  0.65102990     0.32400
H792        H  0.60085455  0.42531787  0.78203900     0.35100
C793        C  0.62379510  0.39130604  0.54656049     0.20700
C794        C  0.61983897  0.39689894  0.52406663    -0.39200
C795        C  0.62301031  0.39230477  0.49978630     0.19700
C796        C  0.62960090  0.38288136  0.49814227     0.22300
C797        C  0.63352085  0.37726861  0.52059305    -0.39700
C798        C  0.63037457  0.38187558  0.54481870     0.21100
N799        N  0.62244781  0.39440508  0.57185860    -0.33000
C800        C  0.62832732  0.38698215  0.58642308    -0.10500
C801        C  0.63327952  0.37894706  0.57010298    -0.29300
N802        N  0.63150118  0.38019949  0.47291916    -0.45900
C803        C  0.62604602  0.38791305  0.45812945    -0.05200
C804        C  0.62066475  0.39564674  0.47433558    -0.22600
H805        H  0.61478359  0.40436910  0.52537761     0.19300
H806        H  0.63878071  0.36997461  0.51927939     0.18000
H807        H  0.63859201  0.37210535  0.57567566     0.14300
H808        H  0.61570671  0.40276166  0.46843423     0.14200
H809        H  0.61817464  0.40151547  0.57853784     0.32400
H810        H  0.63610733  0.37331877  0.46651832     0.35100
C811        C  0.62491545  0.25378033  0.55143411     0.20700
C812        C  0.61984628  0.24478203  0.52841886    -0.39200
C813        C  0.62402875  0.25307864  0.50451199     0.19700
C814        C  0.63255267  0.26906086  0.50368035     0.22300
C815        C  0.63759479  0.27802165  0.52661501    -0.39700
C816        C  0.63343924  0.26975301  0.55041918     0.21100
N817        N  0.62241855  0.24878715  0.57660274    -0.33000
C818        C  0.62940219  0.26171337  0.59176566    -0.10500
C819        C  0.63641034  0.27498962  0.57592948    -0.29300
N820        N  0.63496942  0.27422710  0.47870552    -0.45900
C821        C  0.62794550  0.26147488  0.46322439    -0.05200
C822        C  0.62098946  0.24803037  0.47875670    -0.22600
H823        H  0.61312990  0.23227099  0.52907052     0.19300
H824        H  0.64423386  0.29053852  0.52597349     0.18000
H825        H  0.64286112  0.28696657  0.58191148     0.14300
H826        H  0.61443496  0.23614733  0.47224498     0.14200
H827        H  0.61617906  0.23728372  0.58289877     0.32400
H828        H  0.64114777  0.28580689  0.47285607     0.35100
C829        C  0.61601346  0.30610299  0.64101036     0.20700
C830        C  0.61829933  0.31870322  0.62548423    -0.39200
C831        C  0.61848757  0.33101763  0.63894291     0.19700
C832        C  0.61637026  0.33085284  0.66590361     0.22300
C833        C  0.61408241  0.31815154  0.68159038    -0.39700
C834        C  0.61403461  0.30576190  0.66804650     0.21100
N835        N  0.61744560  0.29404843  0.63304262    -0.33000
C836        C  0.61668355  0.28594933  0.65500975    -0.10500
C837        C  0.61425327  0.29271978  0.67732280    -0.29300
N838        N  0.61829597  0.34461385  0.67396401    -0.45900
C839        C  0.62192607  0.35354048  0.65191654    -0.05200
C840        C  0.62201757  0.34537834  0.62978093    -0.22600
H841        H  0.62061243  0.31922652  0.60455414     0.19300
H842        H  0.61319857  0.31824089  0.70282816     0.18000
H843        H  0.61438047  0.28953621  0.69768915     0.14300
H844        H  0.62483507  0.34955287  0.60971225     0.14200
H845        H  0.61995953  0.29210671  0.61390956     0.32400
H846        H  0.61802700  0.34799515  0.69331859     0.35100
C847        C  0.74953171  0.38517860  0.54113651     0.20700
C848        C  0.73993009  0.38089892  0.51887076    -0.39200
C849        C  0.74764697  0.38580206  0.49468267     0.19700
C850        C  0.76370854  0.39433939  0.49274079     0.22300
C851        C  0.77336325  0.39871548  0.51512032    -0.39700
C852        C  0.76560377  0.39375678  0.53944142     0.21100
N853        N  0.74490016  0.38190000  0.56625751    -0.33000
C854        C  0.75806469  0.38846617  0.58104674    -0.10500
C855        C  0.77127905  0.39596527  0.56488684    -0.29300
N856        N  0.76810694  0.39739775  0.46736890    -0.45900
C857        C  0.75471106  0.39072410  0.45305491    -0.05200
C858        C  0.74172382  0.38342280  0.46957631    -0.22600
H859        H  0.72734601  0.37419724  0.52029326     0.19300
H860        H  0.78594570  0.40542191  0.51369308     0.18000
H861        H  0.78337474  0.40239229  0.57083337     0.14300
H862        H  0.72953553  0.37704041  0.46422437     0.14200
H863        H  0.73334327  0.37553073  0.57253446     0.32400
H864        H  0.77955174  0.40371259  0.46045455     0.35100
C865        C  0.71179041  0.33201320  0.66103090     0.20700
C866        C  0.70445271  0.31597620  0.66643657    -0.39200
C867        C  0.68802559  0.30783358  0.66434996     0.19700
C868        C  0.67978350  0.31527021  0.65764611     0.22300
C869        C  0.68702407  0.33111378  0.65244471    -0.39700
C870        C  0.70323150  0.33909210  0.65420446     0.21100
N871        N  0.72721285  0.34234142  0.65995715    -0.33000
C872        C  0.72820986  0.35586949  0.65192246    -0.10500
C873        C  0.71348989  0.35423610  0.64845530    -0.29300
N874        N  0.66459062  0.30518707  0.65515857    -0.45900
C875        C  0.66285117  0.29101733  0.65987319    -0.05200
C876        C  0.67720542  0.29214368  0.66617639    -0.22600
H877        H  0.71103249  0.31021380  0.67105135     0.19300
H878        H  0.68050610  0.33673975  0.64647783     0.18000
H879        H  0.71060464  0.36293570  0.64218014     0.14300
H880        H  0.67951409  0.28275544  0.67006908     0.14200
H881        H  0.73641959  0.34021226  0.66345531     0.32400
H882        H  0.65595739  0.30789679  0.65003885     0.35100
C883        C  0.71553804  0.40563063  0.65639211     0.20700
C884        C  0.70440514  0.40677635  0.67212542    -0.39200
C885        C  0.69106447  0.40496444  0.65888701     0.19700
C886        C  0.68898285  0.40209600  0.63210557     0.22300
C887        C  0.70011214  0.40109698  0.61642098    -0.39700
C888        C  0.71339814  0.40297034  0.62956911     0.21100
N889        N  0.72819051  0.40494527  0.66452537    -0.33000
C890        C  0.73391085  0.40159443  0.64274673    -0.10500
C891        C  0.72512162  0.40054685  0.62058115    -0.29300
N892        N  0.67467274  0.39899337  0.62465000    -0.45900
C893        C  0.66751270  0.39991806  0.64677699    -0.05200
C894        C  0.67742340  0.40383032  0.66852183    -0.22600
H895        H  0.70566358  0.40818642  0.69327333     0.19300
H896        H  0.69816523  0.39819383  0.59572636     0.18000
H897        H  0.72634261  0.39713682  0.60088998     0.14300
H898        H  0.67458869  0.40451080  0.68888822     0.14200
H899        H  0.73184277  0.40530616  0.68399695     0.32400
H900        H  0.66986228  0.39579530  0.60591414     0.35100
C901        C  0.19377587  0.61319182  0.29390665     0.20700
C902        C  0.21018371  0.62074321  0.29550973    -0.39200
C903        C  0.21644215  0.62303616  0.32110179     0.19700
C904        C  0.20703650  0.61823788  0.34322273     0.22300
C905        C  0.19069602  0.61075774  0.34162196    -0.39700
C906        C  0.18445043  0.60839563  0.31615510     0.21100
N907        N  0.18492562  0.60933729  0.27203149    -0.33000
C908        C  0.16985442  0.60198621  0.28041730    -0.10500
C909        C  0.16913120  0.60123098  0.30786779    -0.29300
N910        N  0.21565487  0.62177564  0.36523471    -0.45900
C911        C  0.23083386  0.62896509  0.35739756    -0.05200
C912        C  0.23172749  0.62989627  0.32983781    -0.22600
H913        H  0.21751530  0.62446720  0.27813481     0.19300
H914        H  0.18336404  0.60696630  0.35899484     0.18000
H915        H  0.15879883  0.59597925  0.32013264     0.14300
H916        H  0.24218861  0.63513169  0.31787946     0.14200
H917        H  0.18892601  0.61142745  0.25258515     0.32400
H918        H  0.21113782  0.61942465  0.38429626     0.35100
C919        C  0.13338479  0.56268153  0.99400822     0.20700
C920        C  0.14087169  0.57206543  0.01589563    -0.39200
C921        C  0.13367597  0.56621139  0.04037261     0.19700
C922        C  0.12007155  0.55211891  0.04270975     0.22300
C923        C  0.11264045  0.54274360  0.02092932    -0.39700
C924        C  0.11980746  0.54858756  0.99656693     0.21100
N925        N  0.13724958  0.56602136  0.96846198    -0.33000
C926        C  0.12593934  0.55402168  0.95477446    -0.10500
C927        C  0.11494558  0.54288436  0.97166725    -0.29300
N928        N  0.11497930  0.54955610  0.06766593    -0.45900
C929        C  0.12535409  0.56208875  0.08146543    -0.05200
C930        C  0.13730025  0.57270177  0.06518982    -0.22600
H931        H  0.15126698  0.58326790  0.01392924     0.19300
H932        H  0.10179420  0.53191390  0.02273211     0.18000
H933        H  0.10443831  0.53233501  0.96643620     0.14300
H934        H  0.14690531  0.58391208  0.07054364     0.14200
H935        H  0.14658238  0.57613041  0.96081455     0.32400
H936        H  0.10481385  0.53999559  0.07469531     0.35100
C937        C  0.18366041  0.60295330  0.71791952     0.20700
C938        C  0.18865228  0.60699825  0.69170082    -0.39200
C939        C  0.20487353  0.61464494  0.68760751     0.19700
C940        C  0.21532925  0.61807356  0.70803652     0.22300
C941        C  0.21035418  0.61402543  0.73425001    -0.39700
C942        C  0.19413747  0.60635600  0.73834670     0.21100
N943        N  0.16887371  0.59537144  0.72694657    -0.33000
C944        C  0.16991495  0.59392846  0.75335315    -0.10500
C945        C  0.18551849  0.60069766  0.76115033    -0.29300
N946        N  0.23008353  0.62532123  0.69893838    -0.45900
C947        C  0.22912113  0.62643038  0.67241186    -0.05200
C948        C  0.21347904  0.61990102  0.66470537    -0.22600
H949        H  0.18050216  0.60427980  0.67563172     0.19300
H950        H  0.21850535  0.61659899  0.75027215     0.18000
H951        H  0.18998379  0.60121604  0.78081070     0.14300
H952        H  0.20882243  0.61904368  0.64513498     0.14200
H953        H  0.15870809  0.59132275  0.71578162     0.32400
H954        H  0.24023703  0.62916071  0.71005531     0.35100
C955        C  0.99054969  0.49036571  0.23298094     0.20700
C956        C  0.00431800  0.49254714  0.22122816    -0.39200
C957        C  0.01815672  0.50469831  0.23122647     0.19700
C958        C  0.01844362  0.51404626  0.25158764     0.22300
C959        C  0.00453002  0.51183201  0.26347003    -0.39700
C960        C  0.99052696  0.49958916  0.25331060     0.21100
N961        N  0.97598576  0.48034842  0.22533951    -0.33000
C962        C  0.96636935  0.48310210  0.24060680    -0.10500
C963        C  0.97499797  0.49494788  0.25862338    -0.29300
N964        N  0.03320405  0.52555554  0.25589330    -0.45900
C965        C  0.04218463  0.52352288  0.23778490    -0.05200
C966        C  0.03315760  0.51055433  0.22232417    -0.22600
H967        H  0.00422616  0.48563885  0.20471993     0.19300
H968        H  0.00457196  0.51939870  0.27877801     0.18000
H969        H  0.97058301  0.50005263  0.27258271     0.14300
H970        H  0.03694799  0.50639011  0.20579040     0.14200
H971        H  0.97285731  0.47246307  0.20987614     0.32400
H972        H  0.03678457  0.53470770  0.26912146     0.35100
C973        C  0.80163950  0.41471447  0.34729334     0.20700
C974        C  0.81802194  0.42271959  0.34607776    -0.39200
C975        C  0.82450621  0.42638880  0.32070292     0.19700
C976        C  0.81532900  0.42233497  0.29833115     0.22300
C977        C  0.79895940  0.41436546  0.29956845    -0.39700
C978        C  0.79248486  0.41073885  0.32494128     0.21100
N979        N  0.79271721  0.41012300  0.36902904    -0.33000
C980        C  0.77765769  0.40313358  0.36060543    -0.10500
C981        C  0.77712221  0.40335771  0.33311155    -0.29300
N982        N  0.82424549  0.42712498  0.27659351    -0.45900
C983        C  0.83924023  0.43432770  0.28506653    -0.05200
C984        C  0.83988625  0.43411162  0.31253477    -0.22600
H985        H  0.82517988  0.42590657  0.36361046     0.19300
H986        H  0.79179830  0.41128408  0.28205300     0.18000
H987        H  0.76684137  0.39884270  0.32081692     0.14300
H988        H  0.85017624  0.43887469  0.32483788     0.14200
H989        H  0.79696113  0.41207194  0.38825931     0.32400
H990        H  0.82030412  0.42556939  0.25714913     0.35100
C991        C  0.99052893  0.48135230  0.80830331     0.20700
C992        C  0.00408714  0.48277267  0.81970983    -0.39200
C993        C  0.01817091  0.49425319  0.80900139     0.19700
C994        C  0.01886685  0.50367601  0.78832637     0.22300
C995        C  0.00517421  0.50218708  0.77672199    -0.39700
C996        C  0.99093708  0.49061055  0.78754349     0.21100
N997        N  0.97588679  0.47228141  0.81681523    -0.33000
C998        C  0.96669034  0.47567104  0.80160631    -0.10500
C999        C  0.97561260  0.48692392  0.78275076    -0.29300
N1000       N  0.03384671  0.51446690  0.78326304    -0.45900
C1001       C  0.04259977  0.51189942  0.80113424    -0.05200
C1002       C  0.03316115  0.49930894  0.81727770    -0.22600
H1003       H  0.00370028  0.47584881  0.83650426     0.19300
H1004       H  0.00557418  0.50982840  0.76113373     0.18000
H1005       H  0.97159118  0.49242504  0.76878339     0.14300
H1006       H  0.03671901  0.49482954  0.83373275     0.14200
H1007       H  0.97244536  0.46468153  0.83285807     0.32400
H1008       H  0.03778316  0.52346299  0.76951138     0.35100
C1009       C  0.87521243  0.43473010  0.04530867     0.20700
C1010       C  0.86711557  0.43419656  0.02214161    -0.39200
C1011       C  0.87381944  0.43291899  0.99848319     0.19700
C1012       C  0.88749507  0.43222375  0.99813761     0.22300
C1013       C  0.89549245  0.43267896  0.02116149    -0.39700
C1014       C  0.88885785  0.43400056  0.04463156     0.21100
N1015       N  0.87186882  0.43678503  0.07019328    -0.33000
C1016       C  0.88357324  0.43746817  0.08524415    -0.10500
C1017       C  0.89430975  0.43570550  0.06994883    -0.29300
N1018       N  0.89224084  0.43233980  0.97339501    -0.45900
C1019       C  0.88163473  0.43322022  0.95764541    -0.05200
C1020       C  0.86979514  0.43338090  0.97252146    -0.22600
H1021       H  0.85667656  0.43519204  0.02245238     0.19300
H1022       H  0.90640339  0.43255817  0.02075604     0.18000
H1023       H  0.90492335  0.43601651  0.07635373     0.14300
H1024       H  0.86016219  0.43467717  0.96539468     0.14200
H1025       H  0.86249847  0.43809843  0.07640928     0.32400
H1026       H  0.90246959  0.43246331  0.96765912     0.35100
C1027       C  0.82689711  0.42144880  0.71909657     0.20700
C1028       C  0.82207624  0.41800742  0.69278278    -0.39200
C1029       C  0.80592605  0.41087652  0.68856761     0.19700
C1030       C  0.79541354  0.40743763  0.70896475     0.22300
C1031       C  0.80021791  0.41087909  0.73525085    -0.39700
C1032       C  0.81634310  0.41798994  0.73947045     0.21100
N1033       N  0.84155487  0.42799842  0.72839349    -0.33000
C1034       C  0.84028223  0.42862969  0.75489360    -0.10500
C1035       C  0.82473863  0.42253023  0.76250081    -0.29300
N1036       N  0.78075110  0.40070195  0.69978526    -0.45900
C1037       C  0.78183704  0.39987196  0.67327908    -0.05200
C1038       C  0.79744463  0.40610149  0.66559177    -0.22600
H1039       H  0.83027927  0.42064942  0.67679201     0.19300
H1040       H  0.79200265  0.40815647  0.75124977     0.18000
H1041       H  0.82015274  0.42138155  0.78224488     0.14300
H1042       H  0.80215589  0.40716440  0.64600330     0.14200
H1043       H  0.85173411  0.43156928  0.71742867     0.32400
H1044       H  0.77057352  0.39699768  0.71083772     0.35100
C1045       C  0.59361040  0.19300975  0.32697819     0.20700
C1046       C  0.59649445  0.19820813  0.35312177    -0.39200
C1047       C  0.60430189  0.21432740  0.35648316     0.19700
C1048       C  0.60881636  0.22454073  0.33550159     0.22300
C1049       C  0.60589461  0.21934980  0.30928734    -0.39700
C1050       C  0.59815090  0.20319481  0.30589673     0.21100
N1051       N  0.58674167  0.17826042  0.31858628    -0.33000
C1052       C  0.58692766  0.17899986  0.29190888    -0.10500
C1053       C  0.59390871  0.19438352  0.28328953    -0.29300
N1054       N  0.61596297  0.23927107  0.34410826    -0.45900
C1055       C  0.61607793  0.23849298  0.37082658    -0.05200
C1056       C  0.60885374  0.22300873  0.37913730    -0.22600
H1057       H  0.59302529  0.19028102  0.36965675     0.19300
H1058       H  0.60947243  0.22728913  0.29275918     0.18000
H1059       H  0.59586344  0.19859325  0.26319119     0.14300
H1060       H  0.60680916  0.21843420  0.39895692     0.14200
H1061       H  0.58240252  0.16832780  0.33031417     0.32400
H1062       H  0.62039266  0.24927927  0.33255272     0.35100
C1063       C  0.58103778  0.12819550  0.05073907     0.20700
C1064       C  0.58023557  0.11983532  0.02817274    -0.39200
C1065       C  0.58021668  0.12677034  0.00423092     0.19700
C1066       C  0.58103227  0.14104708  0.00259281     0.22300
C1067       C  0.58189474  0.14952314  0.02537877    -0.39700
C1068       C  0.58182743  0.14248078  0.04959396     0.21100
N1069       N  0.58029284  0.12349848  0.07569455    -0.33000
C1070       C  0.58048528  0.13473717  0.09092856    -0.10500
C1071       C  0.58157961  0.14690321  0.07538734    -0.29300
N1072       N  0.58012478  0.14463199  0.97721253    -0.45900
C1073       C  0.57860825  0.13242438  0.96289917    -0.05200
C1074       C  0.57870293  0.12116611  0.97916397    -0.22600
H1075       H  0.57927356  0.10851567  0.02921311     0.19300
H1076       H  0.58219172  0.16054280  0.02436210     0.18000
H1077       H  0.58157991  0.15724282  0.08198198     0.14300
H1078       H  0.57747893  0.11013408  0.97352386     0.14200
H1079       H  0.57927493  0.11300329  0.08183947     0.32400
H1080       H  0.58010517  0.15450918  0.97017237     0.35100
C1081       C  0.60636279  0.21390695  0.69754024     0.20700
C1082       C  0.59785355  0.19764324  0.69882550    -0.39200
C1083       C  0.59495789  0.19115599  0.72422854     0.19700
C1084       C  0.60015189  0.20021624  0.74659086     0.22300
C1085       C  0.60863210  0.21647295  0.74530522    -0.39700
C1086       C  0.61150538  0.22294834  0.71989905     0.21100
N1087       N  0.61044624  0.22281224  0.67577735    -0.33000
C1088       C  0.61826572  0.23774364  0.68419573    -0.10500
C1089       C  0.61909335  0.23821512  0.71170972    -0.29300
N1090       N  0.59592488  0.19131319  0.76834643    -0.45900
C1091       C  0.58798743  0.17643417  0.75990754    -0.05200
C1092       C  0.58713394  0.17587116  0.73243000    -0.22600
H1093       H  0.59377078  0.19056520  0.68131742     0.19300
H1094       H  0.61263906  0.22355655  0.76281664     0.18000
H1095       H  0.62443448  0.24840488  0.72402961     0.14300
H1096       H  0.58159734  0.16568658  0.72012423     0.14200
H1097       H  0.60766359  0.21871705  0.65655034     0.32400
H1098       H  0.59839151  0.19518743  0.78778475     0.35100
C1099       C  0.51434788  0.00059780  0.25402544     0.20700
C1100       C  0.51594883  0.01377534  0.26725872    -0.39200
C1101       C  0.52800272  0.02819429  0.25815172     0.19700
C1102       C  0.53766036  0.02924054  0.23754508     0.22300
C1103       C  0.53610554  0.01616466  0.22446252    -0.39700
C1104       C  0.52407816  0.00188362  0.23338749     0.21100
N1105       N  0.50309982  0.98570202  0.25728459    -0.33000
C1106       C  0.50562709  0.97758276  0.23829476    -0.10500
C1107       C  0.51868059  0.98731622  0.22319746    -0.29300
N1108       N  0.54715909  0.04404839  0.23076188    -0.45900
C1109       C  0.54359231  0.05271671  0.24684067    -0.05200
C1110       C  0.53181241  0.04324378  0.26458386    -0.22600
H1111       H  0.50800458  0.01290482  0.28272527     0.19300
H1112       H  0.54330423  0.01709715  0.20769771     0.18000
H1113       H  0.52323900  0.98425943  0.20625840     0.14300
H1114       H  0.52602495  0.04678177  0.27879476     0.14200
H1115       H  0.49383366  0.98146031  0.27064705     0.32400
H1116       H  0.55509741  0.04795184  0.21513606     0.35100
C1117       C  0.39884057  0.80640667  0.32562705     0.20700
C1118       C  0.40065985  0.81190648  0.29961890    -0.39200
C1119       C  0.40958080  0.82803797  0.29645559     0.19700
C1120       C  0.41619483  0.83796242  0.31753593     0.22300
C1121       C  0.41432007  0.83245347  0.34355036    -0.39700
C1122       C  0.40538817  0.81631293  0.34670324     0.21100
N1123       N  0.39095684  0.79159442  0.33389648    -0.33000
C1124       C  0.39237385  0.79197310  0.36052766    -0.10500
C1125       C  0.40137296  0.80730313  0.36913532    -0.29300
N1126       N  0.42424261  0.85277142  0.30923625    -0.45900
C1127       C  0.42273012  0.85226882  0.28264511    -0.05200
C1128       C  0.41364986  0.83702562  0.27400943    -0.22600
H1129       H  0.39555113  0.80419604  0.28305040     0.19300
H1130       H  0.41945975  0.84015690  0.36011987     0.18000
H1131       H  0.40466571  0.81153939  0.38898812     0.14300
H1132       H  0.41049948  0.83301066  0.25397492     0.14200
H1133       H  0.38486150  0.78178846  0.32217861     0.32400
H1134       H  0.43042062  0.86258162  0.32093547     0.35100
C1135       C  0.53102714  0.02578722  0.81062273     0.20700
C1136       C  0.52906953  0.01185537  0.82087468    -0.39200
C1137       C  0.51772828  0.99838130  0.80862636     0.19700
C1138       C  0.50887064  0.99858003  0.78766033     0.22300
C1139       C  0.51098284  0.01265651  0.77710295    -0.39700
C1140       C  0.52246218  0.02628217  0.78941815     0.21100
N1141       N  0.54023372  0.03999329  0.82032896    -0.33000
C1142       C  0.53771365  0.04982483  0.80529814    -0.10500
C1143       C  0.52678729  0.04173083  0.78554939    -0.29300
N1144       N  0.49781871  0.98399180  0.78139911    -0.45900
C1145       C  0.49967986  0.97459770  0.79880483    -0.05200
C1146       C  0.51212882  0.98323120  0.81572356    -0.22600
H1147       H  0.53548641  0.01150395  0.83791838     0.19300
H1148       H  0.50384535  0.01296724  0.76118502     0.18000
H1149       H  0.52207201  0.04640120  0.77124102     0.14300
H1150       H  0.51605114  0.97907696  0.83214408     0.14200
H1151       H  0.54754735  0.04276636  0.83670322     0.32400
H1152       H  0.48903843  0.98072354  0.76731729     0.35100
C1153       C  0.46147969  0.90214137  0.03990163     0.20700
C1154       C  0.46781509  0.91039990  0.01659136    -0.39200
C1155       C  0.46115278  0.90238713  0.99334147     0.19700
C1156       C  0.44906926  0.88723537  0.99305339     0.22300
C1157       C  0.44270484  0.87887316  0.01658329    -0.39700
C1158       C  0.44938583  0.88698064  0.04009084     0.21100
N1159       N  0.46561056  0.90751456  0.06442359    -0.33000
C1160       C  0.45609086  0.89581432  0.08070813    -0.10500
C1161       C  0.44577817  0.88272390  0.06628897    -0.29300
N1162       N  0.44465179  0.88251872  0.96805396    -0.45900
C1163       C  0.45407993  0.89483367  0.95258947    -0.05200
C1164       C  0.46448959  0.90736186  0.96776609    -0.22600
H1165       H  0.47715538  0.92231280  0.01657327     0.19300
H1166       H  0.43314094  0.86707367  0.01660218     0.18000
H1167       H  0.43675337  0.87172568  0.07388838     0.14300
H1168       H  0.47325242  0.91873051  0.96108231     0.14200
H1169       H  0.47424498  0.91864476  0.06963496     0.32400
H1170       H  0.43577937  0.87169825  0.96193697     0.35100
C1171       C  0.40783801  0.82573956  0.73600727     0.20700
C1172       C  0.40054366  0.80952452  0.73444829    -0.39200
C1173       C  0.39781920  0.80333730  0.70892705     0.19700
C1174       C  0.40208543  0.81258672  0.68666183     0.22300
C1175       C  0.40936207  0.82882388  0.68821578    -0.39700
C1176       C  0.41207347  0.83502914  0.71376570     0.21100
N1177       N  0.41170537  0.83438847  0.75794296    -0.33000
C1178       C  0.41851672  0.84934774  0.74975941    -0.10500
C1179       C  0.41893353  0.85020460  0.72225523    -0.29300
N1180       N  0.39800083  0.80387914  0.66474310    -0.45900
C1181       C  0.39096810  0.78888468  0.67303421    -0.05200
C1182       C  0.39067206  0.78817160  0.70055147    -0.22600
H1183       H  0.39715943  0.80225157  0.75184966     0.19300
H1184       H  0.41264172  0.83608639  0.67080924     0.18000
H1185       H  0.42370219  0.86051791  0.71011348     0.14300
H1186       H  0.38565959  0.77787347  0.71275675     0.14200
H1187       H  0.40991512  0.83030861  0.77733644     0.32400
H1188       H  0.39962814  0.80808958  0.64549401     0.35100
loop_ 
_geom_bond_atom_site_label_1 
_geom_bond_atom_site_label_2 
_geom_bond_distance 
_geom_bond_site_symmetry_2 
_ccdc_geom_bond_type 
N1            N2   1.320       .  A
N1            C5   1.357       .  A
N1           Cu9   2.108       .  S
N2            C3   1.337       .  A
N2           Cu8   2.050       .  S
C3            C4   1.379       .  A
C3            H6   1.081       .  S
C4            C5   1.396       .  A
C4         C1145   1.483       .  S
C5            H7   1.082       .  S
Cu8          N11   2.050       .  S
Cu9          N19   2.112       .  S
Cu10         N12   2.086       .  S
Cu10         N18   2.091       .  S
N11          N12   1.318       .  A
N11          C15   1.338       .  A
N12          C13   1.353       .  A
C13          C14   1.391       .  A
C13          H16   1.082       .  S
C14          C15   1.381       .  A
C14        C1163   1.477       .  S
C15          H17   1.081       .  S
N18          N19   1.328       .  A
N18          C22   1.346       .  A
N19          C20   1.351       .  A
C20          C21   1.388       .  A
C20          H23   1.082       .  S
C21          C22   1.382       .  A
C21        C1178   1.483       .  S
C22          H24   1.082       .  S
N25          N26   1.322       .  A
N25          C29   1.353       .  A
N25         Cu33   2.100       .  S
N26          C27   1.342       .  A
N26         Cu32   2.071       .  S
C27          C28   1.382       .  A
C27          H30   1.082       .  S
C28          C29   1.390       .  A
C28        C1106   1.482       .  S
C29          H31   1.082       .  S
Cu32         N35   2.071       .  S
Cu33         N43   2.103       .  S
Cu34         N36   2.072       .  S
Cu34         N42   2.073       .  S
N35          N36   1.320       .  A
N35          C39   1.341       .  A
N36          C37   1.350       .  A
C37          C38   1.387       .  A
C37          H40   1.082       .  S
C38          C39   1.384       .  A
C38        C1160   1.476       .  S
C39          H41   1.081       .  S
N42          N43   1.325       .  A
N42          C46   1.342       .  A
N43          C44   1.351       .  A
C44          C45   1.389       .  A
C44          H47   1.082       .  S
C45          C46   1.380       .  A
C45        C1127   1.480       .  S
C46          H48   1.082       .  S
N49          N50   1.322       .  A
N49          C53   1.353       .  A
N49         Cu57   2.102       .  S
N50          C51   1.342       .  A
N50         Cu56   2.070       .  S
C51          C52   1.382       .  A
C51          H54   1.082       .  S
C52          C53   1.391       .  A
C52        C1142   1.481       .  S
C53          H55   1.082       .  S
Cu56         N59   2.069       .  S
Cu57         N67   2.105       .  S
Cu58         N60   2.079       .  S
Cu58         N66   2.081       .  S
N59          N60   1.320       .  A
N59          C63   1.340       .  A
N60          C61   1.352       .  A
C61          C62   1.389       .  A
C61          H64   1.082       .  S
C62          C63   1.384       .  A
C62        C1073   1.478       .  S
C63          H65   1.081       .  S
N66          N67   1.326       .  A
N66          C70   1.344       .  A
N67          C68   1.351       .  A
C68          C69   1.389       .  A
C68          H71   1.082       .  S
C69          C70   1.381       .  A
C69        C1091   1.481       .  S
C70          H72   1.081       .  S
N73          N74   1.322       .  A
N73          C77   1.357       .  A
N73         Cu81   2.112       .  S
N74          C75   1.338       .  A
N74         Cu80   2.057       .  S
C75          C76   1.378       .  A
C75          H78   1.082       .  S
C76          C77   1.395       .  A
C76        C1109   1.482       .  S
C77          H79   1.082       .  S
Cu80         N83   2.058       .  S
Cu81         N91   2.115       .  S
Cu82         N84   2.076       .  S
Cu82         N90   2.079       .  S
N83          N84   1.318       .  A
N83          C87   1.340       .  A
N84          C85   1.350       .  A
C85          C86   1.389       .  A
C85          H88   1.082       .  S
C86          C87   1.383       .  A
C86        C1070   1.477       .  S
C87          H89   1.081       .  S
N90          N91   1.327       .  A
N90          C94   1.344       .  A
N91          C92   1.352       .  A
C92          C93   1.390       .  A
C92          H95   1.082       .  S
C93          C94   1.380       .  A
C93        C1052   1.482       .  S
C94          H96   1.082       .  S
N97          N98   1.321       .  A
N97         C101   1.353       .  A
N97        Cu105   2.094       .  S
N98          C99   1.340       .  A
N98        Cu104   2.066       .  S
C99         C100   1.380       .  A
C99         H102   1.082       .  S
C100        C101   1.390       .  A
C100        C998   1.479       .  S
C101        H103   1.082       .  S
Cu104       N107   2.065       .  S
Cu105       N115   2.095       .  S
Cu106       N108   2.069       .  S
Cu106       N114   2.071       .  S
N107        N108   1.320       .  A
N107        C111   1.341       .  A
N108        C109   1.349       .  A
C109        C110   1.386       .  A
C109        H112   1.082       .  S
C110        C111   1.382       .  A
C110       C1019   1.472       .  S
C111        H113   1.082       .  S
N114        N115   1.326       .  A
N114        C118   1.342       .  A
N115        C116   1.348       .  A
C116        C117   1.385       .  A
C116        H119   1.082       .  S
C117        C118   1.380       .  A
C117       C1034   1.473       .  S
C118        H120   1.082       .  S
N121        N122   1.321       .  A
N121        C125   1.354       .  A
N121       Cu129   2.097       .  S
N122        C123   1.340       .  A
N122       Cu128   2.065       .  S
C123        C124   1.381       .  A
C123        H126   1.081       .  S
C124        C125   1.392       .  A
C124        C962   1.481       .  S
C125        H127   1.082       .  S
Cu128       N131   2.064       .  S
Cu129       N139   2.099       .  S
Cu130       N132   2.074       .  S
Cu130       N138   2.077       .  S
N131        N132   1.319       .  A
N131        C135   1.341       .  A
N132        C133   1.349       .  A
C133        C134   1.387       .  A
C133        H136   1.082       .  S
C134        C135   1.383       .  A
C134       C1016   1.475       .  S
C135        H137   1.082       .  S
N138        N139   1.326       .  A
N138        C142   1.343       .  A
N139        C140   1.349       .  A
C140        C141   1.387       .  A
C140        H143   1.082       .  S
C141        C142   1.380       .  A
C141        C983   1.477       .  S
C142        H144   1.081       .  S
N145        N146   1.321       .  A
N145        C149   1.357       .  A
N145       Cu153   2.118       .  S
N146        C147   1.339       .  A
N146       Cu152   2.054       .  S
C147        C148   1.379       .  A
C147        H150   1.082       .  S
C148        C149   1.396       .  A
C148       C1001   1.484       .  S
C149        H151   1.082       .  S
Cu152       N155   2.054       .  S
Cu153       N163   2.121       .  S
Cu154       N156   2.075       .  S
Cu154       N162   2.079       .  S
N155        N156   1.319       .  A
N155        C159   1.340       .  A
N156        C157   1.348       .  A
C157        C158   1.387       .  A
C157        H160   1.082       .  S
C158        C159   1.381       .  A
C158        C926   1.472       .  S
C159        H161   1.082       .  S
N162        N163   1.327       .  A
N162        C166   1.344       .  A
N163        C164   1.352       .  A
C164        C165   1.390       .  A
C164        H167   1.082       .  S
C165        C166   1.381       .  A
C165        C944   1.484       .  S
C166        H168   1.082       .  S
N169        N170   1.321       .  A
N169        C173   1.357       .  A
N169       Cu177   2.113       .  S
N170        C171   1.338       .  A
N170       Cu176   2.053       .  S
C171        C172   1.379       .  A
C171        H174   1.082       .  S
C172        C173   1.395       .  A
C172        C965   1.482       .  S
C173        H175   1.082       .  S
Cu176       N179   2.053       .  S
Cu177       N187   2.116       .  S
Cu178       N180   2.077       .  S
Cu178       N186   2.081       .  S
N179        N180   1.319       .  A
N179        C183   1.340       .  A
N180        C181   1.349       .  A
C181        C182   1.388       .  A
C181        H184   1.082       .  S
C182        C183   1.380       .  A
C182        C929   1.472       .  S
C183        H185   1.082       .  S
N186        N187   1.327       .  A
N186        C190   1.346       .  A
N187        C188   1.350       .  A
C188        C189   1.390       .  A
C188        H191   1.082       .  S
C189        C190   1.381       .  A
C189        C908   1.483       .  S
C190        H192   1.082       .  S
C193        C194   1.546       .  S
C193        C199   1.545       .  S
C193        C197   1.543       .  S
C193       C1037   1.513       .  S
C194        H201   1.086       .  S
C194        C195   1.364       .  D
C195        C196   1.529       .  S
C195        C890   1.477       .  S
C196        C200   1.535       .  S
C196        C198   1.535       .  S
C196        H202   1.104       .  S
C197        H203   1.086       .  S
C197        C198   1.365       .  D
C198        C872   1.479       .  S
C199        H204   1.082       .  S
C199        C200   1.366       .  D
C200        C854   1.488       .  S
C205        C206   1.547       .  S
C205        C211   1.548       .  S
C205        C209   1.548       .  S
C205       C1088   1.523       .  S
C206        H213   1.086       .  S
C206        C207   1.367       .  D
C207        C208   1.534       .  S
C207        C875   1.481       .  S
C208        C212   1.533       .  S
C208        C210   1.529       .  S
C208        H214   1.104       .  S
C209        H215   1.086       .  S
C209        C210   1.366       .  D
C210        C836   1.479       .  S
C211        H216   1.081       .  S
C211        C212   1.366       .  D
C212        C818   1.492       .  S
C217        C218   1.543       .  S
C217        C223   1.546       .  S
C217        C221   1.540       .  S
C217        C782   1.520       .  S
C218        H225   1.086       .  S
C218        C219   1.367       .  D
C219        C220   1.538       .  S
C219        C839   1.479       .  S
C220        C224   1.534       .  S
C220        C222   1.536       .  S
C220        H226   1.107       .  S
C221        H227   1.086       .  S
C221        C222   1.365       .  D
C222        C893   1.478       .  S
C223        H228   1.079       .  S
C223        C224   1.366       .  D
C224        C800   1.488       .  S
C229        C230   1.546       .  S
C229        C235   1.543       .  S
C229        C233   1.546       .  S
C229        C980   1.520       .  S
C230        H237   1.086       .  S
C230        C231   1.369       .  D
C231        C232   1.537       .  S
C231        C746   1.484       .  S
C232        C236   1.535       .  S
C232        C234   1.531       .  S
C232        H238   1.106       .  S
C233        H239   1.086       .  S
C233        C234   1.366       .  D
C234        C764   1.477       .  S
C235        H240   1.079       .  S
C235        C236   1.362       .  D
C236        C857   1.486       .  S
C241        C242   1.545       .  S
C241        C247   1.545       .  S
C241        C245   1.546       .  S
C241       C1055   1.522       .  S
C242        H249   1.086       .  S
C242        C243   1.366       .  D
C243        C244   1.532       .  S
C243        C728   1.478       .  S
C244        C248   1.536       .  S
C244        C246   1.538       .  S
C244        H250   1.105       .  S
C245        H251   1.086       .  S
C245        C246   1.369       .  D
C246        C749   1.485       .  S
C247        H252   1.081       .  S
C247        C248   1.364       .  D
C248        C821   1.492       .  S
C253        C254   1.539       .  S
C253        C259   1.549       .  S
C253        C257   1.541       .  S
C253        C710   1.519       .  S
C254        H261   1.086       .  S
C254        C255   1.363       .  D
C255        C256   1.535       .  S
C255        C767   1.475       .  S
C256        C260   1.534       .  S
C256        C258   1.535       .  S
C256        H262   1.106       .  S
C257        H263   1.086       .  S
C257        C258   1.365       .  D
C258        C731   1.477       .  S
C259        H264   1.082       .  S
C259        C260   1.371       .  D
C260        C803   1.489       .  S
C265        C266   1.549       .  S
C265        C271   1.543       .  S
C265        C269   1.543       .  S
C265        C638   1.518       .  S
C266        H273   1.086       .  S
C266        C267   1.370       .  D
C267        C268   1.534       .  S
C267        C677   1.480       .  S
C268        C272   1.530       .  S
C268        C270   1.530       .  S
C268        H274   1.109       .  S
C269        H275   1.086       .  S
C269        C270   1.365       .  D
C270        C692   1.474       .  S
C271        H276   1.083       .  S
C271        C272   1.361       .  D
C272        C659   1.479       .  S
C277        C278   1.547       .  S
C277        C283   1.546       .  S
C277        C281   1.543       .  S
C277       C1181   1.522       .  S
C278        H285   1.086       .  S
C278        C279   1.366       .  D
C279        C280   1.531       .  S
C279        C620   1.479       .  S
C280        C284   1.536       .  S
C280        C282   1.536       .  S
C280        H286   1.106       .  S
C281        H287   1.086       .  S
C281        C282   1.366       .  D
C282        C674   1.481       .  S
C283        H288   1.081       .  S
C283        C284   1.369       .  D
C284        C602   1.492       .  S
C289        C290   1.541       .  S
C289        C295   1.549       .  S
C289        C293   1.541       .  S
C289        C947   1.521       .  S
C290        H297   1.086       .  S
C290        C291   1.366       .  D
C291        C292   1.534       .  S
C291        C695   1.477       .  S
C292        C296   1.535       .  S
C292        C294   1.536       .  S
C292        H298   1.106       .  S
C293        H299   1.086       .  S
C293        C294   1.366       .  D
C294        C623   1.481       .  S
C295        H300   1.082       .  S
C295        C296   1.367       .  D
C296        C584   1.489       .  S
C301        C302   1.545       .  S
C301        C307   1.542       .  S
C301        C305   1.546       .  S
C301        C530   1.520       .  S
C302        H309   1.086       .  S
C302        C303   1.369       .  D
C303        C304   1.534       .  S
C303        C566   1.483       .  S
C304        C308   1.532       .  S
C304        C306   1.535       .  S
C304        H310   1.108       .  S
C305        H311   1.086       .  S
C305        C306   1.368       .  D
C306        C548   1.480       .  S
C307        H312   1.082       .  S
C307        C308   1.361       .  D
C308        C656   1.480       .  S
C313        C314   1.545       .  S
C313        C319   1.546       .  S
C313        C317   1.546       .  S
C313       C1124   1.522       .  S
C314        H321   1.086       .  S
C314        C315   1.368       .  D
C315        C316   1.536       .  S
C315        C551   1.481       .  S
C316        C320   1.535       .  S
C316        C318   1.529       .  S
C316        H322   1.105       .  S
C317        H323   1.086       .  S
C317        C318   1.366       .  D
C318        C515   1.476       .  S
C319        H324   1.081       .  S
C319        C320   1.367       .  D
C320        C605   1.492       .  S
C325        C326   1.540       .  S
C325        C331   1.552       .  S
C325        C329   1.548       .  S
C325        C911   1.527       .  S
C326        H333   1.086       .  S
C326        C327   1.363       .  D
C327        C328   1.534       .  S
C327        C512   1.479       .  S
C328        C332   1.532       .  S
C328        C330   1.536       .  S
C328        H334   1.105       .  S
C329        H335   1.086       .  S
C329        C330   1.371       .  D
C330        C569   1.486       .  S
C331        H336   1.080       .  S
C331        C332   1.366       .  D
C332        C587   1.490       .  S
N337        N338   1.323       .  A
N337        C341   1.355       .  A
N337       Cu345   2.112       .  S
N338        C339   1.339       .  A
N338       Cu344   2.060       .  S
C339        C340   1.378       .  A
C339        H342   1.082       .  S
C340        C341   1.394       .  A
C340        C476   1.481       .  S
C341        H343   1.082       .  S
Cu344       N347   2.060       .  S
Cu345       N355   2.114       .  S
Cu346       N348   2.076       .  S
Cu346       N354   2.077       .  S
N347        N348   1.318       .  A
N347        C351   1.341       .  A
N348        C349   1.349       .  A
C349        C350   1.388       .  A
C349        H352   1.082       .  S
C350        C351   1.384       .  A
C350        C494   1.478       .  S
C351        H353   1.082       .  S
N354        N355   1.326       .  A
N354        C358   1.342       .  A
N355        C356   1.353       .  A
C356        C357   1.391       .  A
C356        H359   1.082       .  S
C357        C358   1.380       .  A
C357        C641   1.482       .  S
C358        H360   1.082       .  S
N361        N362   1.321       .  A
N361        C365   1.353       .  A
N361       Cu369   2.095       .  S
N362        C363   1.338       .  A
N362       Cu368   2.056       .  S
C363        C364   1.380       .  A
C363        H366   1.081       .  S
C364        C365   1.391       .  A
C364        C458   1.478       .  S
C365        H367   1.082       .  S
Cu368       N371   2.057       .  S
Cu369       N379   2.099       .  S
Cu370       N372   2.086       .  S
Cu370       N378   2.089       .  S
N371        N372   1.319       .  A
N371        C375   1.340       .  A
N372        C373   1.352       .  A
C373        C374   1.391       .  A
C373        H376   1.082       .  S
C374        C375   1.382       .  A
C374        C497   1.479       .  S
C375        H377   1.081       .  S
N378        N379   1.327       .  A
N378        C382   1.345       .  A
N379        C380   1.349       .  A
C380        C381   1.386       .  A
C380        H383   1.082       .  S
C381        C382   1.382       .  A
C381        C533   1.479       .  S
C382        H384   1.082       .  S
N385        N386   1.321       .  A
N385        C389   1.354       .  A
N385       Cu393   2.101       .  S
N386        C387   1.339       .  A
N386       Cu392   2.050       .  S
C387        C388   1.378       .  A
C387        H390   1.082       .  S
C388        C389   1.392       .  A
C388        C479   1.476       .  S
C389        H391   1.082       .  S
Cu392       N395   2.050       .  S
Cu393       N403   2.104       .  S
Cu394       N396   2.077       .  S
Cu394       N402   2.080       .  S
N395        N396   1.319       .  A
N395        C399   1.338       .  A
N396        C397   1.350       .  A
C397        C398   1.388       .  A
C397        H400   1.082       .  S
C398        C399   1.380       .  A
C398        C440   1.472       .  S
C399        H401   1.081       .  S
N402        N403   1.327       .  A
N402        C406   1.344       .  A
N403        C404   1.349       .  A
C404        C405   1.387       .  A
C404        H407   1.082       .  S
C405        C406   1.381       .  A
C405        C785   1.478       .  S
C406        H408   1.082       .  S
N409        N410   1.319       .  A
N409        C413   1.355       .  A
N409       Cu417   2.101       .  S
N410        C411   1.335       .  A
N410       Cu416   2.036       .  S
C411        C412   1.375       .  A
C411        H414   1.082       .  S
C412        C413   1.394       .  A
C412        C461   1.474       .  S
C413        H415   1.082       .  S
Cu416       N419   2.037       .  S
Cu417       N427   2.105       .  S
Cu418       N420   2.087       .  S
Cu418       N426   2.092       .  S
N419        N420   1.318       .  A
N419        C423   1.337       .  A
N420        C421   1.351       .  A
C421        C422   1.391       .  A
C421        H424   1.082       .  S
C422        C423   1.379       .  A
C422        C443   1.474       .  S
C423        H425   1.082       .  S
N426        N427   1.328       .  A
N426        C430   1.346       .  A
N427        C428   1.349       .  A
C428        C429   1.386       .  A
C428        H431   1.082       .  S
C429        C430   1.382       .  A
C429        C713   1.480       .  S
C430        H432   1.082       .  S
C433        N439   1.337       .  A
C433        C438   1.384       .  A
C433        C434   1.397   1_556  A
C434        C435   1.396       .  A
C434        H445   1.083       .  S
C435        C444   1.369       .  A
C435        C436   1.384       .  A
C436        N442   1.348       .  A
C436        C437   1.408       .  A
C437        C438   1.408   1_554  A
C437        H446   1.082       .  S
C438        C441   1.384       .  A
N439        C440   1.354       .  A
N439        H449   1.044       .  S
C440        C441   1.398       .  A
C441        H447   1.082       .  S
N442        C443   1.358       .  A
N442        H450   1.044       .  S
C443        C444   1.394       .  A
C444        H448   1.082       .  S
C451        N457   1.350       .  A
C451        C456   1.383       .  A
C451        C452   1.411       .  A
C452        C453   1.410       .  A
C452        H463   1.082       .  S
C453        C462   1.389       .  A
C453        C454   1.384       .  A
C454        N460   1.337       .  A
C454        C455   1.398       .  A
C455        C456   1.396       .  A
C455        H464   1.083       .  S
C456        C459   1.370       .  A
N457        C458   1.359       .  A
N457        H467   1.044       .  S
C458        C459   1.394       .  A
C459        H465   1.082       .  S
N460        C461   1.354       .  A
N460        H468   1.045       .  S
C461        C462   1.399       .  A
C462        H466   1.082       .  S
C469        N475   1.340       .  A
C469        C474   1.384       .  A
C469        C470   1.401       .  A
C470        C471   1.399       .  A
C470        H481   1.083       .  S
C471        C480   1.373       .  A
C471        C472   1.384       .  A
C472        N478   1.350       .  A
C472        C473   1.410       .  A
C473        C474   1.410       .  A
C473        H482   1.082       .  S
C474        C477   1.388       .  A
N475        C476   1.356       .  A
N475        H485   1.045       .  S
C476        C477   1.399       .  A
C477        H483   1.082       .  S
N478        C479   1.358       .  A
N478        H486   1.044       .  S
C479        C480   1.394       .  A
C480        H484   1.083       .  S
C487        N493   1.348       .  A
C487        C492   1.383       .  A
C487        C488   1.410   1_556  A
C488        C489   1.409       .  A
C488        H499   1.082       .  S
C489        C498   1.386       .  A
C489        C490   1.384       .  A
C490        N496   1.340       .  A
C490        C491   1.400       .  A
C491        C492   1.399   1_554  A
C491        H500   1.083       .  S
C492        C495   1.373       .  A
N493        C494   1.359       .  A
N493        H503   1.044       .  S
C494        C495   1.394       .  A
C495        H501   1.082       .  S
N496        C497   1.355       .  A
N496        H504   1.044       .  S
C497        C498   1.399       .  A
C498        H502   1.082       .  S
C505        N511   1.348       .  A
C505        C510   1.384       .  A
C505        C506   1.409       .  A
C506        C507   1.408       .  A
C506        H517   1.082       .  S
C507        C516   1.385       .  A
C507        C508   1.385       .  A
C508        N514   1.339       .  A
C508        C509   1.400       .  A
C509        C510   1.398       .  A
C509        H518   1.083       .  S
C510        C513   1.373       .  A
N511        C512   1.358       .  A
N511        H521   1.044       .  S
C512        C513   1.392       .  A
C513        H519   1.083       .  S
N514        C515   1.353       .  A
N514        H522   1.045       .  S
C515        C516   1.398       .  A
C516        H520   1.082       .  S
C523        N529   1.347       .  A
C523        C528   1.382       .  A
C523        C524   1.405       .  A
C524        C525   1.406       .  A
C524        H535   1.082       .  S
C525        C534   1.378       .  A
C525        C526   1.384       .  A
C526        N532   1.346       .  A
C526        C527   1.403       .  A
C527        C528   1.404       .  A
C527        H536   1.082       .  S
C528        C531   1.375       .  A
N529        C530   1.358       .  A
N529        H539   1.044       .  S
C530        C531   1.402       .  A
C531        H537   1.080       .  S
N532        C533   1.356       .  A
N532        H540   1.045       .  S
C533        C534   1.397       .  A
C534        H538   1.082       .  S
C541        N547   1.352       .  A
C541        C546   1.384       .  A
C541        C542   1.413       .  A
C542        C543   1.413       .  A
C542        H553   1.082       .  S
C543        C552   1.390       .  A
C543        C544   1.384       .  A
C544        N550   1.336       .  A
C544        C545   1.396       .  A
C545        C546   1.394       .  A
C545        H554   1.083       .  S
C546        C549   1.367       .  A
N547        C548   1.360       .  A
N547        H557   1.045       .  S
C548        C549   1.391       .  A
C549        H555   1.083       .  S
N550        C551   1.353       .  A
N550        H558   1.044       .  S
C551        C552   1.401       .  A
C552        H556   1.082       .  S
C559        N565   1.341       .  A
C559        C564   1.384       .  A
C559        C560   1.400       .  A
C560        C561   1.400       .  A
C560        H571   1.083       .  S
C561        C570   1.371       .  A
C561        C562   1.383       .  A
C562        N568   1.351       .  A
C562        C563   1.409       .  A
C563        C564   1.410       .  A
C563        H572   1.082       .  S
C564        C567   1.385       .  A
N565        C566   1.355       .  A
N565        H575   1.045       .  S
C566        C567   1.399       .  A
C567        H573   1.082       .  S
N568        C569   1.359       .  A
N568        H576   1.044       .  S
C569        C570   1.395       .  A
C570        H574   1.080       .  S
C577        N583   1.347       .  A
C577        C582   1.382       .  A
C577        C578   1.409       .  A
C578        C579   1.408       .  A
C578        H589   1.082       .  S
C579        C588   1.384       .  A
C579        C580   1.382       .  A
C580        N586   1.339       .  A
C580        C581   1.400       .  A
C581        C582   1.399       .  A
C581        H590   1.083       .  S
C582        C585   1.373       .  A
N583        C584   1.360       .  A
N583        H593   1.044       .  S
C584        C585   1.397       .  A
C585        H591   1.080       .  S
N586        C587   1.357       .  A
N586        H594   1.041       .  S
C587        C588   1.402       .  A
C588        H592   1.082       .  S
C595        N601   1.345       .  A
C595        C600   1.382       .  A
C595        C596   1.406       .  A
C596        C597   1.405       .  A
C596        H607   1.082       .  S
C597        C606   1.380       .  A
C597        C598   1.382       .  A
C598        N604   1.343       .  A
C598        C599   1.404       .  A
C599        C600   1.404       .  A
C599        H608   1.082       .  S
C600        C603   1.378       .  A
N601        C602   1.359       .  A
N601        H611   1.043       .  S
C602        C603   1.400       .  A
C603        H609   1.081       .  S
N604        C605   1.359       .  A
N604        H612   1.043       .  S
C605        C606   1.400       .  A
C606        H610   1.081       .  S
C613        N619   1.349       .  A
C613        C618   1.384       .  A
C613        C614   1.410       .  A
C614        C615   1.409       .  A
C614        H625   1.082       .  S
C615        C624   1.386       .  A
C615        C616   1.384       .  A
C616        N622   1.341       .  A
C616        C617   1.399       .  A
C617        C618   1.399       .  A
C617        H626   1.083       .  S
C618        C621   1.371       .  A
N619        C620   1.358       .  A
N619        H629   1.044       .  S
C620        C621   1.393       .  A
C621        H627   1.083       .  S
N622        C623   1.354       .  A
N622        H630   1.045       .  S
C623        C624   1.399       .  A
C624        H628   1.082       .  S
C631        N637   1.346       .  A
C631        C636   1.382       .  A
C631        C632   1.404       .  A
C632        C633   1.405       .  A
C632        H643   1.082       .  S
C633        C642   1.377       .  A
C633        C634   1.384       .  A
C634        N640   1.348       .  A
C634        C635   1.404       .  A
C635        C636   1.405       .  A
C635        H644   1.082       .  S
C636        C639   1.376       .  A
N637        C638   1.357       .  A
N637        H647   1.044       .  S
C638        C639   1.402       .  A
C639        H645   1.080       .  S
N640        C641   1.357       .  A
N640        H648   1.044       .  S
C641        C642   1.398       .  A
C642        H646   1.082       .  S
C649        N655   1.342       .  A
C649        C654   1.384       .  A
C649        C650   1.402       .  A
C650        C651   1.401       .  A
C650        H661   1.082       .  S
C651        C660   1.376       .  A
C651        C652   1.384       .  A
C652        N658   1.343       .  A
C652        C653   1.404       .  A
C653        C654   1.403       .  A
C653        H662   1.082       .  S
C654        C657   1.378       .  A
N655        C656   1.355       .  A
N655        H665   1.044       .  S
C656        C657   1.397       .  A
C657        H663   1.082       .  S
N658        C659   1.357       .  A
N658        H666   1.044       .  S
C659        C660   1.395       .  A
C660        H664   1.082       .  S
C667        N673   1.338       .  A
C667        C672   1.384       .  A
C667        C668   1.396       .  A
C668        C669   1.396       .  A
C668        H679   1.083       .  S
C669        C678   1.368       .  A
C669        C670   1.384       .  A
C670        N676   1.352       .  A
C670        C671   1.412       .  A
C671        C672   1.412       .  A
C671        H680   1.082       .  S
C672        C675   1.388       .  A
N673        C674   1.353       .  A
N673        H683   1.045       .  S
C674        C675   1.400       .  A
C675        H681   1.082       .  S
N676        C677   1.359       .  A
N676        H684   1.044       .  S
C677        C678   1.392       .  A
C678        H682   1.083       .  S
C685        N691   1.347       .  A
C685        C690   1.384       .  A
C685        C686   1.408       .  A
C686        C687   1.407       .  A
C686        H697   1.082       .  S
C687        C696   1.383       .  A
C687        C688   1.384       .  A
C688        N694   1.339       .  A
C688        C689   1.399       .  A
C689        C690   1.398       .  A
C689        H698   1.083       .  S
C690        C693   1.371       .  A
N691        C692   1.357       .  A
N691        H701   1.044       .  S
C692        C693   1.392       .  A
C693        H699   1.083       .  S
N694        C695   1.354       .  A
N694        H702   1.043       .  S
C695        C696   1.398       .  A
C696        H700   1.082       .  S
C703        N709   1.346       .  A
C703        C708   1.383       .  A
C703        C704   1.407       .  A
C704        C705   1.406       .  A
C704        H715   1.082       .  S
C705        C714   1.382       .  A
C705        C706   1.384       .  A
C706        N712   1.344       .  A
C706        C707   1.404       .  A
C707        C708   1.403       .  A
C707        H716   1.082       .  S
C708        C711   1.377       .  A
N709        C710   1.360       .  A
N709        H719   1.043       .  S
C710        C711   1.397       .  A
C711        H717   1.082       .  S
N712        C713   1.357       .  A
N712        H720   1.045       .  S
C713        C714   1.398       .  A
C714        H718   1.082       .  S
C721        N727   1.349       .  A
C721        C726   1.384       .  A
C721        C722   1.409       .  A
C722        C723   1.409       .  A
C722        H733   1.082       .  S
C723        C732   1.385       .  A
C723        C724   1.385       .  A
C724        N730   1.340       .  A
C724        C725   1.399       .  A
C725        C726   1.398       .  A
C725        H734   1.083       .  S
C726        C729   1.371       .  A
N727        C728   1.358       .  A
N727        H737   1.044       .  S
C728        C729   1.392       .  A
C729        H735   1.083       .  S
N730        C731   1.353       .  A
N730        H738   1.044       .  S
C731        C732   1.398       .  A
C732        H736   1.082       .  S
C739        N745   1.338       .  A
C739        C744   1.384       .  A
C739        C740   1.397       .  A
C740        C741   1.396       .  A
C740        H751   1.083       .  S
C741        C750   1.369       .  A
C741        C742   1.383       .  A
C742        N748   1.352       .  A
C742        C743   1.413       .  A
C743        C744   1.413       .  A
C743        H752   1.082       .  S
C744        C747   1.390       .  A
N745        C746   1.354       .  A
N745        H755   1.045       .  S
C746        C747   1.401       .  A
C747        H753   1.082       .  S
N748        C749   1.360       .  A
N748        H756   1.044       .  S
C749        C750   1.393       .  A
C750        H754   1.082       .  S
C757        N763   1.348       .  A
C757        C762   1.385       .  A
C757        C758   1.408       .  A
C758        C759   1.407       .  A
C758        H769   1.082       .  S
C759        C768   1.383       .  A
C759        C760   1.385       .  A
C760        N766   1.340       .  A
C760        C761   1.399       .  A
C761        C762   1.399       .  A
C761        H770   1.083       .  S
C762        C765   1.371       .  A
N763        C764   1.358       .  A
N763        H773   1.044       .  S
C764        C765   1.393       .  A
C765        H771   1.083       .  S
N766        C767   1.353       .  A
N766        H774   1.045       .  S
C767        C768   1.397       .  A
C768        H772   1.082       .  S
C775        N781   1.343       .  A
C775        C780   1.382       .  A
C775        C776   1.405       .  A
C776        C777   1.403       .  A
C776        H787   1.082       .  S
C777        C786   1.381       .  A
C777        C778   1.383       .  A
C778        N784   1.344       .  A
C778        C779   1.406       .  A
C779        C780   1.404       .  A
C779        H788   1.082       .  S
C780        C783   1.381       .  A
N781        C782   1.361       .  A
N781        H791   1.041       .  S
C782        C783   1.398       .  A
C783        H789   1.082       .  S
N784        C785   1.357       .  A
N784        H792   1.045       .  S
C785        C786   1.396       .  A
C786        H790   1.082       .  S
C793        N799   1.344       .  A
C793        C798   1.382       .  A
C793        C794   1.406       .  A
C794        C795   1.404       .  A
C794        H805   1.082       .  S
C795        C804   1.381       .  A
C795        C796   1.382       .  A
C796        N802   1.341       .  A
C796        C797   1.403       .  A
C797        C798   1.401       .  A
C797        H806   1.083       .  S
C798        C801   1.376       .  A
N799        C800   1.359       .  A
N799        H809   1.043       .  S
C800        C801   1.398       .  A
C801        H807   1.081       .  S
N802        C803   1.358       .  A
N802        H810   1.044       .  S
C803        C804   1.399       .  A
C804        H808   1.082       .  S
C811        N817   1.347       .  A
C811        C816   1.382       .  A
C811        C812   1.407       .  A
C812        C813   1.407       .  A
C812        H823   1.082       .  S
C813        C822   1.381       .  A
C813        C814   1.382       .  A
C814        N820   1.343       .  A
C814        C815   1.402       .  A
C815        C816   1.401       .  A
C815        H824   1.082       .  S
C816        C819   1.374       .  A
N817        C818   1.360       .  A
N817        H827   1.044       .  S
C818        C819   1.399       .  A
C819        H825   1.081       .  S
N820        C821   1.358       .  A
N820        H828   1.043       .  S
C821        C822   1.402       .  A
C822        H826   1.082       .  S
C829        N835   1.338       .  A
C829        C834   1.384       .  A
C829        C830   1.398       .  A
C830        C831   1.396       .  A
C830        H841   1.083       .  S
C831        C840   1.371       .  A
C831        C832   1.384       .  A
C832        N838   1.350       .  A
C832        C833   1.411       .  A
C833        C834   1.411       .  A
C833        H842   1.082       .  S
C834        C837   1.388       .  A
N835        C836   1.353       .  A
N835        H845   1.045       .  S
C836        C837   1.400       .  A
C837        H843   1.082       .  S
N838        C839   1.359       .  A
N838        H846   1.044       .  S
C839        C840   1.391       .  A
C840        H844   1.082       .  S
C847        N853   1.339       .  A
C847        C852   1.382       .  A
C847        C848   1.400       .  A
C848        C849   1.398       .  A
C848        H859   1.082       .  S
C849        C858   1.374       .  A
C849        C850   1.382       .  A
C850        N856   1.344       .  A
C850        C851   1.407       .  A
C851        C852   1.406       .  A
C851        H860   1.082       .  S
C852        C855   1.382       .  A
N853        C854   1.357       .  A
N853        H863   1.043       .  S
C854        C855   1.401       .  A
C855        H861   1.082       .  S
N856        C857   1.360       .  A
N856        H864   1.044       .  S
C857        C858   1.396       .  A
C858        H862   1.081       .  S
C865        N871   1.351       .  A
C865        C870   1.383       .  A
C865        C866   1.413       .  A
C866        C867   1.413       .  A
C866        H877   1.082       .  S
C867        C876   1.390       .  A
C867        C868   1.384       .  A
C868        N874   1.335       .  A
C868        C869   1.395       .  A
C869        C870   1.393       .  A
C869        H878   1.083       .  S
C870        C873   1.366       .  A
N871        C872   1.360       .  A
N871        H881   1.045       .  S
C872        C873   1.390       .  A
C873        H879   1.083       .  S
N874        C875   1.353       .  A
N874        H882   1.045       .  S
C875        C876   1.401       .  A
C876        H880   1.082       .  S
C883        N889   1.348       .  A
C883        C888   1.384       .  A
C883        C884   1.408       .  A
C884        C885   1.408       .  A
C884        H895   1.082       .  S
C885        C894   1.383       .  A
C885        C886   1.385       .  A
C886        N892   1.342       .  A
C886        C887   1.399       .  A
C887        C888   1.399       .  A
C887        H896   1.082       .  S
C888        C891   1.371       .  A
N889        C890   1.357       .  A
N889        H899   1.047       .  S
C890        C891   1.393       .  A
C891        H897   1.083       .  S
N892        C893   1.355       .  A
N892        H900   1.041       .  S
C893        C894   1.397       .  A
C894        H898   1.082       .  S
C901        N907   1.347       .  A
C901        C906   1.383       .  A
C901        C902   1.410       .  A
C902        C903   1.409       .  A
C902        H913   1.082       .  S
C903        C912   1.386       .  A
C903        C904   1.382       .  A
C904        N910   1.342       .  A
C904        C905   1.405       .  A
C905        C906   1.402       .  A
C905        H914   1.082       .  S
C906        C909   1.380       .  A
N907        C908   1.360       .  A
N907        H917   1.045       .  S
C908        C909   1.395       .  A
C909        H915   1.082       .  S
N910        C911   1.360       .  A
N910        H918   1.042       .  S
C911        C912   1.402       .  A
C912        H916   1.082       .  S
C919        N925   1.345       .  A
C919        C924   1.384       .  A
C919        C920   1.406   1_556  A
C920        C921   1.405       .  A
C920        H931   1.082       .  S
C921        C930   1.382       .  A
C921        C922   1.384       .  A
C922        N928   1.339       .  A
C922        C923   1.400       .  A
C923        C924   1.399   1_554  A
C923        H932   1.083       .  S
C924        C927   1.373       .  A
N925        C926   1.356       .  A
N925        H935   1.044       .  S
C926        C927   1.394       .  A
C927        H933   1.082       .  S
N928        C929   1.355       .  A
N928        H936   1.045       .  S
C929        C930   1.396       .  A
C930        H934   1.082       .  S
C937        N943   1.348       .  A
C937        C942   1.384       .  A
C937        C938   1.406       .  A
C938        C939   1.406       .  A
C938        H949   1.082       .  S
C939        C948   1.380       .  A
C939        C940   1.382       .  A
C940        N946   1.346       .  A
C940        C941   1.405       .  A
C941        C942   1.406       .  A
C941        H950   1.082       .  S
C942        C945   1.379       .  A
N943        C944   1.357       .  A
N943        H953   1.045       .  S
C944        C945   1.399       .  A
C945        H951   1.082       .  S
N946        C947   1.358       .  A
N946        H954   1.044       .  S
C947        C948   1.402       .  A
C948        H952   1.080       .  S
C955        N961   1.339       .  A
C955        C960   1.384       .  A
C955        C956   1.399   1_655  A
C956        C957   1.398       .  A
C956        H967   1.083       .  S
C957        C966   1.371       .  A
C957        C958   1.383       .  A
C958        N964   1.353       .  A
C958        C959   1.413       .  A
C959        C960   1.413   1_455  A
C959        H968   1.082       .  S
C960        C963   1.390       .  A
N961        C962   1.354       .  A
N961        H971   1.045       .  S
C962        C963   1.401       .  A
C963        H969   1.082       .  S
N964        C965   1.360       .  A
N964        H972   1.044       .  S
C965        C966   1.394       .  A
C966        H970   1.082       .  S
C973        N979   1.342       .  A
C973        C978   1.382       .  A
C973        C974   1.406       .  A
C974        C975   1.403       .  A
C974        H985   1.083       .  S
C975        C984   1.382       .  A
C975        C976   1.384       .  A
C976        N982   1.342       .  A
C976        C977   1.405       .  A
C977        C978   1.402       .  A
C977        H986   1.082       .  S
C978        C981   1.380       .  A
N979        C980   1.361       .  A
N979        H989   1.043       .  S
C980        C981   1.397       .  A
C981        H987   1.082       .  S
N982        C983   1.356       .  A
N982        H990   1.045       .  S
C983        C984   1.397       .  A
C984        H988   1.082       .  S
C991        N997   1.340       .  A
C991        C996   1.384       .  A
C991        C992   1.399   1_655  A
C992        C993   1.398       .  A
C992       H1003   1.083       .  S
C993       C1002   1.372       .  A
C993        C994   1.383       .  A
C994       N1000   1.353       .  A
C994        C995   1.413       .  A
C995        C996   1.413   1_455  A
C995       H1004   1.082       .  S
C996        C999   1.390       .  A
N997        C998   1.354       .  A
N997       H1007   1.045       .  S
C998        C999   1.400       .  A
C999       H1005   1.082       .  S
N1000      C1001   1.360       .  A
N1000      H1008   1.044       .  S
C1001      C1002   1.395       .  A
C1002      H1006   1.082       .  S
C1009      N1015   1.347       .  A
C1009      C1014   1.384       .  A
C1009      C1010   1.408       .  A
C1010      C1011   1.407   1_554  A
C1010      H1021   1.082       .  S
C1011      C1020   1.384       .  A
C1011      C1012   1.385       .  A
C1012      N1018   1.339       .  A
C1012      C1013   1.398   1_556  A
C1013      C1014   1.397       .  A
C1013      H1022   1.083       .  S
C1014      C1017   1.372       .  A
N1015      C1016   1.358       .  A
N1015      H1025   1.044       .  S
C1016      C1017   1.393       .  A
C1017      H1023   1.082       .  S
N1018      C1019   1.353       .  A
N1018      H1026   1.045       .  S
C1019      C1020   1.398       .  A
C1020      H1024   1.082       .  S
C1027      N1033   1.345       .  A
C1027      C1032   1.384       .  A
C1027      C1028   1.404       .  A
C1028      C1029   1.404       .  A
C1028      H1039   1.082       .  S
C1029      C1038   1.377       .  A
C1029      C1030   1.383       .  A
C1030      N1036   1.342       .  A
C1030      C1031   1.402       .  A
C1031      C1032   1.402       .  A
C1031      H1040   1.082       .  S
C1032      C1035   1.375       .  A
N1033      C1034   1.356       .  A
N1033      H1043   1.044       .  S
C1034      C1035   1.395       .  A
C1035      H1041   1.082       .  S
N1036      C1037   1.356       .  A
N1036      H1044   1.045       .  S
C1037      C1038   1.401       .  A
C1038      H1042   1.080       .  S
C1045      N1051   1.346       .  A
C1045      C1050   1.384       .  A
C1045      C1046   1.403       .  A
C1046      C1047   1.404       .  A
C1046      H1057   1.082       .  S
C1047      C1056   1.376       .  A
C1047      C1048   1.382       .  A
C1048      N1054   1.347       .  A
C1048      C1049   1.407       .  A
C1049      C1050   1.407       .  A
C1049      H1058   1.082       .  S
C1050      C1053   1.380       .  A
N1051      C1052   1.356       .  A
N1051      H1061   1.044       .  S
C1052      C1053   1.399       .  A
C1053      H1059   1.082       .  S
N1054      C1055   1.359       .  A
N1054      H1062   1.044       .  S
C1055      C1056   1.402       .  A
C1056      H1060   1.080       .  S
C1063      N1069   1.338       .  A
C1063      C1068   1.384       .  A
C1063      C1064   1.397       .  A
C1064      C1065   1.396       .  A
C1064      H1075   1.083       .  S
C1065      C1074   1.369   1_554  A
C1065      C1066   1.383       .  A
C1066      N1072   1.350   1_554  A
C1066      C1067   1.411       .  A
C1067      C1068   1.411       .  A
C1067      H1076   1.082       .  S
C1068      C1071   1.387       .  A
N1069      C1070   1.353       .  A
N1069      H1079   1.044       .  S
C1070      C1071   1.400       .  A
C1071      H1077   1.082       .  S
N1072      C1073   1.360       .  A
N1072      H1080   1.045       .  S
C1073      C1074   1.392       .  A
C1074      H1078   1.082       .  S
C1081      N1087   1.344       .  A
C1081      C1086   1.382       .  A
C1081      C1082   1.407       .  A
C1082      C1083   1.405       .  A
C1082      H1093   1.082       .  S
C1083      C1092   1.383       .  A
C1083      C1084   1.383       .  A
C1084      N1090   1.344       .  A
C1084      C1085   1.406       .  A
C1085      C1086   1.404       .  A
C1085      H1094   1.082       .  S
C1086      C1089   1.381       .  A
N1087      C1088   1.361       .  A
N1087      H1097   1.042       .  S
C1088      C1089   1.399       .  A
C1089      H1095   1.082       .  S
N1090      C1091   1.358       .  A
N1090      H1098   1.045       .  S
C1091      C1092   1.397       .  A
C1092      H1096   1.082       .  S
C1099      N1105   1.351   1_545  A
C1099      C1104   1.383       .  A
C1099      C1100   1.412       .  A
C1100      C1101   1.411       .  A
C1100      H1111   1.082       .  S
C1101      C1110   1.390       .  A
C1101      C1102   1.384       .  A
C1102      N1108   1.340       .  A
C1102      C1103   1.401       .  A
C1103      C1104   1.399       .  A
C1103      H1112   1.083       .  S
C1104      C1107   1.375   1_545  A
N1105      C1106   1.359       .  A
N1105      H1115   1.044       .  S
C1106      C1107   1.394       .  A
C1107      H1113   1.082       .  S
N1108      C1109   1.356       .  A
N1108      H1116   1.044       .  S
C1109      C1110   1.400       .  A
C1110      H1114   1.082       .  S
C1117      N1123   1.346       .  A
C1117      C1122   1.382       .  A
C1117      C1118   1.405       .  A
C1118      C1119   1.405       .  A
C1118      H1129   1.082       .  S
C1119      C1128   1.377       .  A
C1119      C1120   1.384       .  A
C1120      N1126   1.347       .  A
C1120      C1121   1.405       .  A
C1121      C1122   1.406       .  A
C1121      H1130   1.082       .  S
C1122      C1125   1.378       .  A
N1123      C1124   1.358       .  A
N1123      H1133   1.044       .  S
C1124      C1125   1.403       .  A
C1125      H1131   1.080       .  S
N1126      C1127   1.357       .  A
N1126      H1134   1.045       .  S
C1127      C1128   1.397       .  A
C1128      H1132   1.082       .  S
C1135      N1141   1.341       .  A
C1135      C1140   1.384       .  A
C1135      C1136   1.399       .  A
C1136      C1137   1.398   1_545  A
C1136      H1147   1.083       .  S
C1137      C1146   1.370       .  A
C1137      C1138   1.383       .  A
C1138      N1144   1.353       .  A
C1138      C1139   1.412   1_565  A
C1139      C1140   1.413       .  A
C1139      H1148   1.082       .  S
C1140      C1143   1.389       .  A
N1141      C1142   1.354       .  A
N1141      H1151   1.045       .  S
C1142      C1143   1.401       .  A
C1143      H1149   1.082       .  S
N1144      C1145   1.360       .  A
N1144      H1152   1.044       .  S
C1145      C1146   1.395       .  A
C1146      H1150   1.082       .  S
C1153      N1159   1.338       .  A
C1153      C1158   1.384       .  A
C1153      C1154   1.397       .  A
C1154      C1155   1.396   1_554  A
C1154      H1165   1.083       .  S
C1155      C1164   1.369       .  A
C1155      C1156   1.383       .  A
C1156      N1162   1.350       .  A
C1156      C1157   1.410   1_556  A
C1157      C1158   1.410       .  A
C1157      H1166   1.082       .  S
C1158      C1161   1.386       .  A
N1159      C1160   1.353       .  A
N1159      H1169   1.044       .  S
C1160      C1161   1.400       .  A
C1161      H1167   1.082       .  S
N1162      C1163   1.359       .  A
N1162      H1170   1.044       .  S
C1163      C1164   1.393       .  A
C1164      H1168   1.082       .  S
C1171      N1177   1.344       .  A
C1171      C1176   1.383       .  A
C1171      C1172   1.406       .  A
C1172      C1173   1.404       .  A
C1172      H1183   1.082       .  S
C1173      C1182   1.380       .  A
C1173      C1174   1.382       .  A
C1174      N1180   1.346       .  A
C1174      C1175   1.408       .  A
C1175      C1176   1.406       .  A
C1175      H1184   1.082       .  S
C1176      C1179   1.383       .  A
N1177      C1178   1.357       .  A
N1177      H1187   1.045       .  S
C1178      C1179   1.398       .  A
C1179      H1185   1.082       .  S
N1180      C1181   1.361       .  A
N1180      H1188   1.042       .  S
C1181      C1182   1.398       .  A
C1182      H1186   1.082       .  S
