geometry optimzed in LAMMPS
_audit_creation_date              2020-12-01 
_audit_creation_method            'lammps2cif' 
_symmetry_space_group_name_H-M    'P1' 
_symmetry_Int_Tables_number       1 
_symmetry_cell_setting            triclinic 
loop_ 
_symmetry_equiv_pos_as_xyz 
  x,y,z 
_cell_length_a                    52.58681845 
_cell_length_b                    52.41950237974703 
_cell_length_c                    36.36415904498747 
_cell_angle_alpha                 88.78898820884332 
_cell_angle_beta                  91.16606492729245 
_cell_angle_gamma                 120.68539997509738 
loop_ 
_atom_site_label 
_atom_site_type_symbol 
_atom_site_fract_x 
_atom_site_fract_y 
_atom_site_fract_z 
_atom_site_charge 
C1          C  0.16975424  0.32987200  0.20146296     0.46100
H2          H  0.17566153  0.33057815  0.23098180    -0.03000
C3          C  0.15611673  0.32892341  0.13230179     0.46100
H4          H  0.15071361  0.32918043  0.10284437    -0.03000
C5          C  0.18388055  0.31735282  0.17650654    -0.16600
C6          C  0.13663230  0.31136682  0.19358858    -0.16400
C7          C  0.17900853  0.36056038  0.18543811    -0.16800
C8          C  0.17676127  0.31699937  0.13999903    -0.16800
C9          C  0.12925080  0.31034953  0.15703490    -0.16300
C10         C  0.17252168  0.36010898  0.14868300    -0.16600
C11         C  0.33322694  0.16605482  0.20136980     0.46100
H12         H  0.33556443  0.16493246  0.23172902    -0.03000
C13         C  0.32823026  0.16930569  0.13055022     0.46100
H14         H  0.32642163  0.17056641  0.10015295    -0.03000
C15         C  0.31781280  0.13577844  0.18243352    -0.16600
C16         C  0.31520258  0.18027106  0.18922144    -0.16400
C17         C  0.36283416  0.18398401  0.18224392    -0.16800
C18         C  0.31514626  0.13757019  0.14504268    -0.16800
C19         C  0.31269327  0.18224356  0.15182496    -0.16300
C20         C  0.35999958  0.18585609  0.14499702    -0.16600
O21         O  0.47307251  0.22009592  0.29300165    -0.71200
O22         O  0.02171986  0.24284031  0.04500048    -0.71400
O23         O  0.46378302  0.21495334  0.03188118    -0.71200
O24         O  0.03155055  0.24795756  0.30656372    -0.71200
O25         O  0.03204142  0.28964988  0.30397206    -0.71200
O26         O  0.46677818  0.25783016  0.03303805    -0.71200
O27         O  0.02432760  0.28547812  0.04317918    -0.71200
O28         O  0.47368454  0.26175629  0.29343540    -0.71400
V29         V  0.49739635  0.23196522  0.33567844     1.35200
V30         V  0.49940545  0.27277340  0.33502725     1.35200
C31         C  0.46432341  0.23669003  0.27917555     0.78100
C32         C  0.03153545  0.26823064  0.05855860     0.78100
C33         C  0.45464844  0.23116941  0.04378132     0.78000
C34         C  0.04341054  0.27445941  0.29550181     0.78000
O35         O  0.23954464  0.21926269  0.03758163    -0.71200
O36         O  0.22105992  0.24987715  0.28643540    -0.71400
O37         O  0.24592327  0.21754024  0.29901472    -0.71200
O38         O  0.21448530  0.25206754  0.02542004    -0.71200
O39         O  0.25748369  0.29237855  0.02862601    -0.71200
O40         O  0.28920329  0.25751926  0.30227998    -0.71200
O41         O  0.26405775  0.29013730  0.28936505    -0.71200
O42         O  0.28265487  0.25948248  0.04126465    -0.71400
V43         V  0.23108062  0.23554539  0.32893653     1.35200
V44         V  0.27253479  0.27417592  0.33205766     1.35200
C45         C  0.26460518  0.23361479  0.05295502     0.78100
C46         C  0.23943268  0.27496525  0.27308491     0.78100
C47         C  0.27283090  0.23159397  0.29037090     0.78000
C48         C  0.23057067  0.27802994  0.03737752     0.78000
O49         O  0.25938990  0.46867178  0.29922141    -0.71200
O50         O  0.28863588  0.02976382  0.03606883    -0.71400
O51         O  0.25903702  0.47012199  0.03947972    -0.71200
O52         O  0.28848743  0.02803289  0.29605032    -0.71200
O53         O  0.24736329  0.02850657  0.29653015    -0.71200
O54         O  0.21691232  0.46825704  0.03433850    -0.71200
O55         O  0.24598422  0.02702519  0.03611343    -0.71200
O56         O  0.21869372  0.46972729  0.29468324    -0.71400
V57         V  0.27319487  0.99914401  0.00103651     1.35200
V58         V  0.23303551  0.49832777  0.99882541     1.35200
C59         C  0.23423689  0.45914352  0.28453826     0.78100
C60         C  0.27229067  0.03885158  0.04789853     0.78100
C61         C  0.23245056  0.45887867  0.04922870     0.78000
C62         C  0.27293723  0.03858071  0.28419216     0.78000
C63         C  0.32179711  0.11228128  0.09330692    -0.11700
C64         C  0.30279620  0.11239153  0.11965572     0.05400
C65         C  0.27360019  0.08819241  0.12236197    -0.06900
C66         C  0.26435814  0.06393002  0.09929410    -0.07700
C67         C  0.28370088  0.06344881  0.07374734    -0.02200
C68         C  0.31278190  0.08775214  0.07104917     0.04600
N69         N  0.33324749  0.08806365  0.04550252     0.67100
H70         H  0.34425140  0.13084848  0.09114665     0.16000
H71         H  0.24176576  0.04555705  0.10081170     0.15700
N72         N  0.25280035  0.08858412  0.14685179     0.74800
O73         O  0.33900642  0.10333194  0.01627162    -0.38700
O74         O  0.34892650  0.07707055  0.05485116    -0.38600
O75         O  0.25070673  0.11142935  0.14849657    -0.39300
O76         O  0.23364505  0.06497243  0.16255875    -0.39400
C77         C  0.28807957  0.10800531  0.23476266    -0.11700
C78         C  0.30473027  0.10847143  0.20497485     0.05400
C79         C  0.31005968  0.08480070  0.20031375    -0.06900
C80         C  0.29951750  0.06205388  0.22686806    -0.07700
C81         C  0.28413862  0.06271002  0.25741644    -0.02200
C82         C  0.27805173  0.08572316  0.26123099     0.04600
N83         N  0.26311285  0.08769635  0.29272115     0.67100
H84         H  0.28399196  0.12602598  0.23857144     0.16000
H85         H  0.30362437  0.04393099  0.22394801     0.15700
N86         N  0.32670387  0.08369720  0.17018961     0.74800
O87         O  0.27252066  0.08698324  0.32470900    -0.38700
O88         O  0.24341921  0.09453338  0.95524118    -0.38600
O89         O  0.35049221  0.10644769  0.16049226    -0.39300
O90         O  0.31928814  0.05913833  0.15570504    -0.39400
C91         C  0.40534852  0.22879764  0.20995024    -0.11700
C92         C  0.39123013  0.19834595  0.20297115     0.05400
C93         C  0.40341042  0.18182676  0.21776683    -0.06900
C94         C  0.42883507  0.19567181  0.23970497    -0.07700
C95         C  0.44196575  0.22564746  0.24897551    -0.02200
C96         C  0.43051955  0.24262989  0.23288786     0.04600
N97         N  0.44358780  0.27358497  0.24018621     0.67100
H98         H  0.39627897  0.24172128  0.19835989     0.16000
H99         H  0.43704056  0.18209622  0.25166507     0.15700
N100        N  0.38939716  0.15056171  0.21297880     0.74800
O101        O  0.46968167  0.29160035  0.23007818    -0.38700
O102        O  0.42799814  0.28334666  0.25267297    -0.38600
O103        O  0.40391411  0.14022326  0.19876385    -0.39300
O104        O  0.36776848  0.13380747  0.23314273    -0.39400
C105        C  0.40150488  0.18492249  0.11804444    -0.11700
C106        C  0.38467219  0.19854405  0.11981972     0.05400
C107        C  0.39043806  0.22244179  0.09621331    -0.06900
C108        C  0.41374245  0.23296918  0.07185157    -0.07700
C109        C  0.43081723  0.21952726  0.07015825    -0.02200
C110        C  0.42478181  0.19531845  0.09363831     0.04600
N111        N  0.44250046  0.18170769  0.09396079     0.67100
H112        H  0.39651395  0.16611467  0.13578285     0.16000
H113        H  0.41807577  0.25135344  0.05361045     0.15700
N114        N  0.37298693  0.23623706  0.09636026     0.74800
O115        O  0.46962587  0.19678785  0.10232829    -0.38700
O116        O  0.43027300  0.15389945  0.09141333    -0.38600
O117        O  0.38529622  0.26328540  0.10460512    -0.39300
O118        O  0.34921984  0.22481179  0.07788290    -0.39400
C119        C  0.27711481  0.17778301  0.10424592    -0.11700
C120        C  0.29713497  0.19523144  0.13178061     0.05400
C121        C  0.30424441  0.22502585  0.13570124    -0.06900
C122        C  0.29200235  0.23673613  0.11073832    -0.07700
C123        C  0.27337132  0.21958122  0.08193321    -0.02200
C124        C  0.26535571  0.18958904  0.07924417     0.04600
N125        N  0.24772957  0.17161272  0.04919187     0.67100
H126        H  0.27193987  0.15516012  0.10062986     0.16000
H127        H  0.29823161  0.25982077  0.11268645     0.15700
N128        N  0.32518828  0.24433566  0.16270891     0.74800
O129        O  0.25787429  0.17778583  0.01699709    -0.38700
O130        O  0.22473054  0.14691723  0.05554121    -0.38600
O131        O  0.34947707  0.24529505  0.16759801    -0.39300
O132        O  0.32103119  0.26309345  0.17853614    -0.39400
C133        C  0.32390836  0.21408835  0.23979524    -0.11700
C134        C  0.30364209  0.19188327  0.21629079     0.05400
C135        C  0.27331204  0.18170857  0.21878149    -0.06900
C136        C  0.26385487  0.19481776  0.24358727    -0.07700
C137        C  0.28417194  0.21794109  0.26608120    -0.02200
C138        C  0.31450272  0.22754589  0.26430432     0.04600
N139        N  0.33593960  0.25080974  0.28703438     0.67100
H140        H  0.34727106  0.22162213  0.23830834     0.16000
H141        H  0.24040197  0.18689010  0.24501244     0.15700
N142        N  0.25166106  0.15705677  0.19807701     0.74800
O143        O  0.33995657  0.24522064  0.31984575    -0.38700
O144        O  0.35325755  0.27598947  0.27308252    -0.38600
O145        O  0.24114183  0.13139552  0.21188680    -0.39300
O146        O  0.23690473  0.16135889  0.17352165    -0.39400
C147        C  0.08900619  0.31591226  0.12976636    -0.11700
C148        C  0.09867712  0.29678104  0.14191325     0.05400
C149        C  0.08162324  0.26642535  0.13300260    -0.06900
C150        C  0.05904295  0.25742831  0.10650856    -0.07700
C151        C  0.05198020  0.27767858  0.09052105    -0.02200
C152        C  0.06568764  0.30669748  0.10453633     0.04600
N153        N  0.05699862  0.32738056  0.09274957     0.67100
H154        H  0.10052788  0.33859493  0.13879077     0.16000
H155        H  0.04701928  0.23443607  0.09821242     0.15700
N156        N  0.08589496  0.24440583  0.15141208     0.74800
O157        O  0.04275462  0.33395324  0.11429193    -0.38700
O158        O  0.06743701  0.34242800  0.06361017    -0.38600
O159        O  0.08751373  0.24442720  0.18601582    -0.39300
O160        O  0.07994151  0.22100858  0.13490785    -0.39400
C161        C  0.09851089  0.31750526  0.22236982    -0.11700
C162        C  0.11534207  0.30373680  0.22313740     0.05400
C163        C  0.11091667  0.28286197  0.25106761    -0.06900
C164        C  0.08763655  0.27422683  0.27534797    -0.07700
C165        C  0.06963994  0.28682866  0.27284975    -0.02200
C166        C  0.07583833  0.30941430  0.24692893     0.04600
N167        N  0.05807367  0.32282625  0.24335936     0.67100
H168        H  0.10226442  0.33402174  0.20175876     0.16000
H169        H  0.08329840  0.25723590  0.29589720     0.15700
N170        N  0.12804624  0.26860089  0.25351620     0.74800
O171        O  0.06421282  0.34512729  0.26244414    -0.38700
O172        O  0.03969610  0.31563149  0.21711766    -0.38600
O173        O  0.15494443  0.28338754  0.26287787    -0.39300
O174        O  0.11497941  0.24064697  0.25523175    -0.39400
C175        C  0.22127581  0.32323746  0.10983170    -0.11700
C176        C  0.19036296  0.30941679  0.11038440     0.05400
C177        C  0.17324242  0.28790258  0.08389108    -0.06900
C178        C  0.18712212  0.27866331  0.05982677    -0.07700
C179        C  0.21781009  0.29073648  0.06120922    -0.02200
C180        C  0.23517327  0.31384876  0.08588237     0.04600
N181        N  0.26655200  0.32666181  0.08872536     0.67100
H182        H  0.23464342  0.34057159  0.12926768     0.16000
H183        H  0.17361765  0.26149659  0.04024446     0.15700
N184        N  0.14173503  0.27385252  0.08211087     0.74800
O185        O  0.28337340  0.35432187  0.08477337    -0.38700
O186        O  0.27711504  0.31117975  0.10075344    -0.38600
O187        O  0.13032667  0.28628644  0.06380674    -0.39300
O188        O  0.12657445  0.24618048  0.08733295    -0.39400
C189        C  0.20672821  0.26589946  0.21905516    -0.11700
C190        C  0.23109924  0.28620649  0.24026750     0.05400
C191        C  0.24402607  0.31679392  0.23257164    -0.06900
C192        C  0.22949694  0.32641217  0.20853355    -0.07700
C193        C  0.20248957  0.30614182  0.19209337    -0.02200
C194        C  0.19228992  0.27552527  0.19480282     0.04600
N195        N  0.16680769  0.25387597  0.17473544     0.67100
H196        H  0.19749722  0.24226695  0.22328927     0.16000
H197        H  0.23911973  0.34990372  0.20309558     0.15700
N198        N  0.27075803  0.33833943  0.25040078     0.74800
O199        O  0.16646208  0.23162110  0.16152792    -0.38700
O200        O  0.14363643  0.25531559  0.17302406    -0.39000
O201        O  0.29497056  0.34044566  0.24219831    -0.39300
O202        O  0.27082170  0.35783729  0.93690828    -0.39400
C203        C  0.21888778  0.40301365  0.12534379    -0.11700
C204        C  0.18780514  0.38636621  0.12453242     0.05400
C205        C  0.17218155  0.39362600  0.09877218    -0.06900
C206        C  0.18750554  0.41763968  0.07527981    -0.07700
C207        C  0.21844871  0.43448490  0.07600203    -0.02200
C208        C  0.23435129  0.42701413  0.10120086     0.04600
N209        N  0.26592301  0.44347386  0.10271794     0.67100
H210        H  0.23118495  0.39702149  0.14436517     0.16000
H211        H  0.17479923  0.42260709  0.05562199     0.15700
N212        N  0.14076444  0.37697604  0.09554986     0.74800
O213        O  0.27916377  0.46672560  0.12160980    -0.38700
O214        O  0.28035209  0.43275328  0.08928066    -0.38600
O215        O  0.12629825  0.38821427  0.10740379    -0.39300
O216        O  0.12936094  0.35786742  0.07055747    -0.39400
C217        C  0.21726970  0.39081700  0.23205262    -0.11700
C218        C  0.19455134  0.38764400  0.20825832     0.05400
C219        C  0.18655873  0.40967042  0.20795774    -0.06900
C220        C  0.20070338  0.43340156  0.23219782    -0.07700
C221        C  0.22274435  0.43585933  0.25665281    -0.02200
C222        C  0.23184132  0.41488656  0.25549335     0.04600
N223        N  0.25506891  0.41706913  0.27880496     0.67100
H224        H  0.22360133  0.37421979  0.23314358     0.16000
H225        H  0.19369018  0.44958309  0.23271242     0.15700
N226        N  0.16304117  0.40756782  0.18519616     0.74800
O227        O  0.24897729  0.40338776  0.30928693    -0.38700
O228        O  0.28106681  0.42915344  0.26670780    -0.38600
O229        O  0.13753936  0.38501635  0.18763318    -0.39300
O230        O  0.16621458  0.43035205  0.16848105    -0.39400
C231        C  0.16975426  0.32987202  0.53479636     0.46100
H232        H  0.17566153  0.33057815  0.56431520    -0.03000
C233        C  0.15611682  0.32892348  0.46563517     0.46100
H234        H  0.15071372  0.32918053  0.43617775    -0.03000
C235        C  0.18388062  0.31735287  0.50983994    -0.16600
C236        C  0.13663233  0.31136683  0.52692193    -0.16400
C237        C  0.17900855  0.36056041  0.51877154    -0.16800
C238        C  0.17676136  0.31699945  0.47333243    -0.16800
C239        C  0.12925086  0.31034956  0.49036824    -0.16300
C240        C  0.17252173  0.36010904  0.48201642    -0.16600
C241        C  0.33322691  0.16605484  0.53470306     0.46100
H242        H  0.33556441  0.16493247  0.56506228    -0.03000
C243        C  0.32823022  0.16930569  0.46388349     0.46100
H244        H  0.32642157  0.17056639  0.43348621    -0.03000
C245        C  0.31781276  0.13577845  0.51576679    -0.16600
C246        C  0.31520256  0.18027108  0.52255471    -0.16400
C247        C  0.36283412  0.18398402  0.51557718    -0.16800
C248        C  0.31514621  0.13757020  0.47837596    -0.16800
C249        C  0.31269324  0.18224357  0.48515823    -0.16300
C250        C  0.35999954  0.18585609  0.47833027    -0.16600
O251        O  0.47307248  0.22009597  0.62633492    -0.71200
O252        O  0.02171992  0.24284036  0.37833379    -0.71400
O253        O  0.46378305  0.21495340  0.36521454    -0.71200
O254        O  0.03155054  0.24795763  0.63989702    -0.71200
O255        O  0.03204138  0.28964993  0.63730532    -0.71200
O256        O  0.46677822  0.25783023  0.36637138    -0.71200
O257        O  0.02432764  0.28547817  0.37651251    -0.71200
O258        O  0.47368450  0.26175633  0.62676867    -0.71400
V259        V  0.49739632  0.23196527  0.66901171     1.35200
V260        V  0.49940543  0.27277345  0.66836053     1.35200
C261        C  0.46432337  0.23669007  0.61250883     0.78100
C262        C  0.03153551  0.26823069  0.39189191     0.78100
C263        C  0.45464847  0.23116947  0.37711466     0.78000
C264        C  0.04341052  0.27445947  0.62883510     0.78000
O265        O  0.23954468  0.21926282  0.37091493    -0.71200
O266        O  0.22105991  0.24987710  0.61976880    -0.71400
O267        O  0.24592328  0.21754021  0.63234809    -0.71200
O268        O  0.21448538  0.25206768  0.35875332    -0.71200
O269        O  0.25748378  0.29237867  0.36195930    -0.71200
O270        O  0.28920330  0.25751923  0.63561341    -0.71200
O271        O  0.26405774  0.29013725  0.62269849    -0.71200
O272        O  0.28265494  0.25948257  0.37459792    -0.71400
V273        V  0.23108061  0.23554532  0.66226992     1.35200
V274        V  0.27253476  0.27417585  0.66539110     1.35200
C275        C  0.26460523  0.23361490  0.38628831     0.78100
C276        C  0.23943268  0.27496521  0.60641833     0.78100
C277        C  0.27283091  0.23159396  0.62370428     0.78000
C278        C  0.23057076  0.27803007  0.37071081     0.78000
O279        O  0.25938996  0.46867183  0.63255479    -0.71200
O280        O  0.28863584  0.02976381  0.36940214    -0.71400
O281        O  0.25903706  0.47012203  0.37281305    -0.71200
O282        O  0.28848740  0.02803290  0.62938359    -0.71200
O283        O  0.24736326  0.02850658  0.62986342    -0.71200
O284        O  0.21691234  0.46825702  0.36767181    -0.71200
O285        O  0.24598416  0.02702515  0.36944674    -0.71200
O286        O  0.21869377  0.46972732  0.62801662    -0.71400
V287        V  0.27319484  0.99914400  0.33436982     1.35200
V288        V  0.23303551  0.49832777  0.33215873     1.35200
C289        C  0.23423696  0.45914357  0.61787164     0.78100
C290        C  0.27229061  0.03885157  0.38123183     0.78100
C291        C  0.23245059  0.45887866  0.38256200     0.78000
C292        C  0.27293721  0.03858072  0.61752542     0.78000
C293        C  0.32179705  0.11228127  0.42664021    -0.11700
C294        C  0.30279615  0.11239153  0.45298901     0.05400
C295        C  0.27360013  0.08819241  0.45569526    -0.06900
C296        C  0.26435808  0.06393002  0.43262739    -0.07700
C297        C  0.28370082  0.06344880  0.40708062    -0.02200
C298        C  0.31278183  0.08775214  0.40438245     0.04600
N299        N  0.33324742  0.08806364  0.37883579     0.67100
H300        H  0.34425135  0.13084847  0.42447993     0.16000
H301        H  0.24176570  0.04555704  0.43414499     0.15700
N302        N  0.25280030  0.08858411  0.48018510     0.74800
O303        O  0.33900613  0.10333170  0.34960472    -0.38700
O304        O  0.34892660  0.07707075  0.38818452    -0.38600
O305        O  0.25070674  0.11142938  0.48182999    -0.39300
O306        O  0.23364495  0.06497241  0.49589199    -0.39400
C307        C  0.28807954  0.10800532  0.56809593    -0.11700
C308        C  0.30473024  0.10847145  0.53830812     0.05400
C309        C  0.31005966  0.08480072  0.53364703    -0.06900
C310        C  0.29951748  0.06205390  0.56020133    -0.07700
C311        C  0.28413859  0.06271002  0.59074970    -0.02200
C312        C  0.27805170  0.08572316  0.59456426     0.04600
N313        N  0.26311283  0.08769636  0.62605443     0.67100
H314        H  0.28399192  0.12602599  0.57190471     0.16000
H315        H  0.30362435  0.04393101  0.55728128     0.15700
N316        N  0.32670387  0.08369725  0.50352290     0.74800
O317        O  0.27252066  0.08698327  0.65804227    -0.38700
O318        O  0.24341906  0.09453323  0.28857445    -0.38600
O319        O  0.35049220  0.10644776  0.49382554    -0.39300
O320        O  0.31928819  0.05913838  0.48903834    -0.39400
C321        C  0.40534850  0.22879766  0.54328348    -0.11700
C322        C  0.39123010  0.19834597  0.53630442     0.05400
C323        C  0.40341037  0.18182678  0.55110015    -0.06900
C324        C  0.42883501  0.19567183  0.57303829    -0.07700
C325        C  0.44196570  0.22564749  0.58230880    -0.02200
C326        C  0.43051951  0.24262992  0.56622112     0.04600
N327        N  0.44358775  0.27358499  0.57351947     0.67100
H328        H  0.39627896  0.24172130  0.53169310     0.16000
H329        H  0.43704050  0.18209624  0.58499843     0.15700
N330        N  0.38939709  0.15056171  0.54631217     0.74800
O331        O  0.46968160  0.29160039  0.56341137    -0.38700
O332        O  0.42799811  0.28334666  0.58600634    -0.38600
O333        O  0.40391403  0.14022324  0.53209728    -0.39300
O334        O  0.36776841  0.13380750  0.56647610    -0.39400
C335        C  0.40150499  0.18492264  0.45137787    -0.11700
C336        C  0.38467215  0.19854407  0.45315296     0.05400
C337        C  0.39043791  0.22244168  0.42954638    -0.06900
C338        C  0.41374233  0.23296911  0.40518469    -0.07700
C339        C  0.43081726  0.21952733  0.40349158    -0.02200
C340        C  0.42478196  0.19531865  0.42697180     0.04600
N341        N  0.44250078  0.18170806  0.42729452     0.67100
H342        H  0.39651414  0.16611491  0.46911640     0.16000
H343        H  0.41807557  0.25135327  0.38694344     0.15700
N344        N  0.37298664  0.23623682  0.42969312     0.74800
O345        O  0.46962622  0.19678846  0.43566177    -0.38700
O346        O  0.43027347  0.15389980  0.42474755    -0.38600
O347        O  0.38529579  0.26328516  0.43793791    -0.39300
O348        O  0.34921961  0.22481143  0.41121563    -0.39400
C349        C  0.27711477  0.17778306  0.43757923    -0.11700
C350        C  0.29713498  0.19523149  0.46511388     0.05400
C351        C  0.30424448  0.22502592  0.46903448    -0.06900
C352        C  0.29200245  0.23673622  0.44407156    -0.07700
C353        C  0.27337136  0.21958131  0.41526649    -0.02200
C354        C  0.26535568  0.18958911  0.41257749     0.04600
N355        N  0.24772949  0.17161277  0.38252522     0.67100
H356        H  0.27193977  0.15516014  0.43396321     0.16000
H357        H  0.29823176  0.25982088  0.44601966     0.15700
N358        N  0.32518840  0.24433572  0.49604212     0.74800
O359        O  0.25787415  0.17778586  0.35033042    -0.38700
O360        O  0.22473047  0.14691729  0.38887462    -0.38600
O361        O  0.34947716  0.24529505  0.50093121    -0.39300
O362        O  0.32103138  0.26309357  0.51186932    -0.39400
C363        C  0.32390837  0.21408839  0.57312850    -0.11700
C364        C  0.30364209  0.19188331  0.54962406     0.05400
C365        C  0.27331203  0.18170859  0.55211480    -0.06900
C366        C  0.26385487  0.19481777  0.57692060    -0.07700
C367        C  0.28417195  0.21794111  0.59941452    -0.02200
C368        C  0.31450273  0.22754594  0.59763759     0.04600
N369        N  0.33593962  0.25080981  0.62036759     0.67100
H370        H  0.34727106  0.22162218  0.57164157     0.16000
H371        H  0.24040197  0.18689010  0.57834581     0.15700
N372        N  0.25166104  0.15705679  0.53141034     0.74800
O373        O  0.33995711  0.24522061  0.65317871    -0.38700
O374        O  0.35325715  0.27598970  0.60641583    -0.38600
O375        O  0.24114175  0.13139555  0.54522020    -0.39300
O376        O  0.23690476  0.16135891  0.50685491    -0.39400
C377        C  0.08900625  0.31591229  0.46309968    -0.11700
C378        C  0.09867719  0.29678108  0.47524655     0.05400
C379        C  0.08162332  0.26642539  0.46633587    -0.06900
C380        C  0.05904304  0.25742836  0.43984184    -0.07700
C381        C  0.05198027  0.27767863  0.42385435    -0.02200
C382        C  0.06568771  0.30669752  0.43786965     0.04600
N383        N  0.05699868  0.32738060  0.42608292     0.67100
H384        H  0.10052793  0.33859495  0.47212413     0.16000
H385        H  0.04701937  0.23443612  0.43154569     0.15700
N386        N  0.08589504  0.24440587  0.48474534     0.74800
O387        O  0.04275469  0.33395328  0.44762531    -0.38700
O388        O  0.06743705  0.34242804  0.39694352    -0.38600
O389        O  0.08751377  0.24442720  0.51934908    -0.39300
O390        O  0.07994161  0.22100863  0.46824108    -0.39400
C391        C  0.09851091  0.31750528  0.55570312    -0.11700
C392        C  0.11534207  0.30373678  0.55647071     0.05400
C393        C  0.11091662  0.28286194  0.58440092    -0.06900
C394        C  0.08763651  0.27422685  0.60868128    -0.07700
C395        C  0.06963995  0.28682873  0.60618307    -0.02200
C396        C  0.07583837  0.30941437  0.58026224     0.04600
N397        N  0.05807379  0.32282641  0.57669270     0.67100
H398        H  0.10226448  0.33402177  0.53509205     0.16000
H399        H  0.08329833  0.25723591  0.62923051     0.15700
N400        N  0.12804613  0.26860080  0.58684950     0.74800
O401        O  0.06421259  0.34512702  0.59577817    -0.38700
O402        O  0.03969680  0.31563233  0.55045042    -0.38600
O403        O  0.15494436  0.28338741  0.59621096    -0.39300
O404        O  0.11497924  0.24064687  0.58856520    -0.39400
C405        C  0.22127593  0.32323750  0.44316516    -0.11700
C406        C  0.19036307  0.30941689  0.44371779     0.05400
C407        C  0.17324255  0.28790277  0.41722437    -0.06900
C408        C  0.18712225  0.27866351  0.39316003    -0.07700
C409        C  0.21781021  0.29073661  0.39454255    -0.02200
C410        C  0.23517338  0.31384881  0.41921580     0.04600
N411        N  0.26655210  0.32666177  0.42205888     0.67100
H412        H  0.23464352  0.34057156  0.46260121     0.16000
H413        H  0.17361778  0.26149686  0.37357764     0.15700
N414        N  0.14173516  0.27385277  0.41544408     0.74800
O415        O  0.28337356  0.35432185  0.41810718    -0.38700
O416        O  0.27711505  0.31117959  0.43408676    -0.38600
O417        O  0.13032688  0.28628671  0.39713983    -0.39300
O418        O  0.12657453  0.24618074  0.42066621    -0.39400
C419        C  0.20672823  0.26589948  0.55238856    -0.11700
C420        C  0.23109926  0.28620648  0.57360092     0.05400
C421        C  0.24402610  0.31679392  0.56590508    -0.06900
C422        C  0.22949695  0.32641212  0.54186702    -0.07700
C423        C  0.20248962  0.30614185  0.52542679    -0.02200
C424        C  0.19228996  0.27552530  0.52813621     0.04600
N425        N  0.16680775  0.25387602  0.50806879     0.67100
H426        H  0.19749723  0.24226694  0.55662266     0.16000
H427        H  0.23911983  0.34990389  0.53642904     0.15700
N428        N  0.27075808  0.33833941  0.58373420     0.74800
O429        O  0.16646216  0.23162119  0.49486121    -0.38700
O430        O  0.14363648  0.25531563  0.50635742    -0.39000
O431        O  0.29497055  0.34044541  0.57553199    -0.39300
O432        O  0.27082158  0.35783716  0.27024195    -0.39400
C433        C  0.21888782  0.40301381  0.45867732    -0.11700
C434        C  0.18780519  0.38636630  0.45786587     0.05400
C435        C  0.17218160  0.39362600  0.43210553    -0.06900
C436        C  0.18750559  0.41763962  0.40861305    -0.07700
C437        C  0.21844875  0.43448487  0.40933531    -0.02200
C438        C  0.23435132  0.42701421  0.43453428     0.04600
N439        N  0.26592304  0.44347396  0.43605135     0.67100
H440        H  0.23118501  0.39702172  0.47769877     0.16000
H441        H  0.17479927  0.42260697  0.38895517     0.15700
N442        N  0.14076449  0.37697604  0.42888322     0.74800
O443        O  0.27916376  0.46672471  0.45494500    -0.38700
O444        O  0.28035216  0.43275409  0.42261227    -0.38600
O445        O  0.12629831  0.38821425  0.44073724    -0.39300
O446        O  0.12936098  0.35786747  0.40389078    -0.39400
C447        C  0.21726968  0.39081711  0.56538605    -0.11700
C448        C  0.19455135  0.38764401  0.54159177     0.05400
C449        C  0.18655874  0.40967045  0.54129117    -0.06900
C450        C  0.20070343  0.43340159  0.56553122    -0.07700
C451        C  0.22274442  0.43585940  0.58998617    -0.02200
C452        C  0.23184139  0.41488661  0.58882672     0.04600
N453        N  0.25506903  0.41706923  0.61213825     0.67100
H454        H  0.22360143  0.37421959  0.56647700     0.16000
H455        H  0.19369021  0.44958315  0.56604582     0.15700
N456        N  0.16304117  0.40756783  0.51852962     0.74800
O457        O  0.24897745  0.40338746  0.64261994    -0.38700
O458        O  0.28106700  0.42915400  0.60004120    -0.38600
O459        O  0.13753933  0.38501644  0.52096685    -0.39300
O460        O  0.16621463  0.43035202  0.50181437    -0.39400
C461        C  0.16975421  0.32987199  0.86812967     0.46100
H462        H  0.17566149  0.33057813  0.89764851    -0.03000
C463        C  0.15611675  0.32892343  0.79896848     0.46100
H464        H  0.15071366  0.32918047  0.76951105    -0.03000
C465        C  0.18388052  0.31735279  0.84317327    -0.16600
C466        C  0.13663227  0.31136683  0.86025525    -0.16400
C467        C  0.17900853  0.36056038  0.85210482    -0.16800
C468        C  0.17676126  0.31699936  0.80666576    -0.16800
C469        C  0.12925079  0.31034955  0.82370156    -0.16300
C470        C  0.17252170  0.36010900  0.81534971    -0.16600
C471        C  0.33322696  0.16605481  0.86803645     0.46100
H472        H  0.33556447  0.16493244  0.89839566    -0.03000
C473        C  0.32823026  0.16930569  0.79721688     0.46100
H474        H  0.32642162  0.17056641  0.76681960    -0.03000
C475        C  0.31781283  0.13577843  0.84910016    -0.16600
C476        C  0.31520259  0.18027103  0.85588811    -0.16400
C477        C  0.36283417  0.18398402  0.84891056    -0.16800
C478        C  0.31514628  0.13757019  0.81170933    -0.16800
C479        C  0.31269326  0.18224354  0.81849163    -0.16300
C480        C  0.35999958  0.18585610  0.81166366    -0.16600
O481        O  0.47307250  0.22009590  0.95966830    -0.71200
O482        O  0.02171988  0.24284042  0.71166709    -0.71400
O483        O  0.46378303  0.21495345  0.69854781    -0.71200
O484        O  0.03155056  0.24795756  0.97323042    -0.71200
O485        O  0.03204138  0.28964986  0.97063874    -0.71200
O486        O  0.46677820  0.25783028  0.69970467    -0.71200
O487        O  0.02432763  0.28547824  0.70984577    -0.71200
O488        O  0.47368452  0.26175626  0.96010206    -0.71400
V489        V  0.49739633  0.23196518  0.00234511     1.35200
V490        V  0.49940542  0.27277336  0.00169394     1.35200
C491        C  0.46432341  0.23669001  0.94584221     0.78100
C492        C  0.03153549  0.26823076  0.72522519     0.78100
C493        C  0.45464846  0.23116953  0.71044796     0.78000
C494        C  0.04341053  0.27445941  0.96216851     0.78000
O495        O  0.23954467  0.21926273  0.70424831    -0.71200
O496        O  0.22105985  0.24987703  0.95310211    -0.71400
O497        O  0.24592323  0.21754015  0.96568140    -0.71200
O498        O  0.21448534  0.25206758  0.69208672    -0.71200
O499        O  0.25748373  0.29237858  0.69529274    -0.71200
O500        O  0.28920325  0.25751917  0.96894671    -0.71200
O501        O  0.26405768  0.29013718  0.95603176    -0.71200
O502        O  0.28265490  0.25948250  0.70793136    -0.71400
V503        V  0.23108056  0.23554527  0.99560324     1.35200
V504        V  0.27253472  0.27417581  0.99872438     1.35200
C505        C  0.26460520  0.23361482  0.71962172     0.78100
C506        C  0.23943261  0.27496513  0.93975163     0.78100
C507        C  0.27283086  0.23159389  0.95703760     0.78000
C508        C  0.23057071  0.27802996  0.70404424     0.78000
O509        O  0.25938991  0.46867179  0.96588809    -0.71200
O510        O  0.28863586  0.02976383  0.70273541    -0.71400
O511        O  0.25903709  0.47012202  0.70614642    -0.71200
O512        O  0.28848746  0.02803290  0.96271701    -0.71200
O513        O  0.24736332  0.02850658  0.96319683    -0.71200
O514        O  0.21691237  0.46825701  0.70100519    -0.71200
O515        O  0.24598421  0.02702524  0.70278003    -0.71200
O516        O  0.21869372  0.46972728  0.96134992    -0.71400
V517        V  0.27319483  0.99914402  0.66770310     1.35200
V518        V  0.23303554  0.49832778  0.66549214     1.35200
C519        C  0.23423690  0.45914352  0.95120494     0.78100
C520        C  0.27229066  0.03885161  0.71456512     0.78100
C521        C  0.23245062  0.45887864  0.71589536     0.78000
C522        C  0.27293726  0.03858072  0.95085884     0.78000
C523        C  0.32179711  0.11228130  0.75997354    -0.11700
C524        C  0.30279621  0.11239153  0.78632236     0.05400
C525        C  0.27360020  0.08819241  0.78902862    -0.06900
C526        C  0.26435815  0.06393003  0.76596074    -0.07700
C527        C  0.28370089  0.06344882  0.74041395    -0.02200
C528        C  0.31278190  0.08775216  0.73771578     0.04600
N529        N  0.33324750  0.08806367  0.71216912     0.67100
H530        H  0.34425141  0.13084850  0.75781326     0.16000
H531        H  0.24176577  0.04555705  0.76747833     0.15700
N532        N  0.25280037  0.08858411  0.81351846     0.74800
O533        O  0.33900682  0.10333239  0.68293854    -0.38700
O534        O  0.34892619  0.07707018  0.72151757    -0.38600
O535        O  0.25070674  0.11142933  0.81516324    -0.39300
O536        O  0.23364507  0.06497241  0.82922541    -0.39400
C537        C  0.28807961  0.10800532  0.90142932    -0.11700
C538        C  0.30473029  0.10847142  0.87164150     0.05400
C539        C  0.31005968  0.08480068  0.86698040    -0.06900
C540        C  0.29951751  0.06205387  0.89353472    -0.07700
C541        C  0.28413865  0.06271002  0.92408311    -0.02200
C542        C  0.27805178  0.08572318  0.92789767     0.04600
N543        N  0.26311294  0.08769640  0.95938785     0.67100
H544        H  0.28399201  0.12602600  0.90523810     0.16000
H545        H  0.30362436  0.04393097  0.89061467     0.15700
N546        N  0.32670385  0.08369717  0.83685624     0.74800
O547        O  0.27252073  0.08698323  0.99137569    -0.38700
O548        O  0.24341903  0.09453323  0.62190774    -0.38600
O549        O  0.35049219  0.10644765  0.82715888    -0.39300
O550        O  0.31928810  0.05913829  0.82237168    -0.39400
C551        C  0.40534852  0.22879764  0.87661690    -0.11700
C552        C  0.39123015  0.19834596  0.86963778     0.05400
C553        C  0.40341044  0.18182676  0.88443343    -0.06900
C554        C  0.42883509  0.19567181  0.90637158    -0.07700
C555        C  0.44196575  0.22564745  0.91564216    -0.02200
C556        C  0.43051954  0.24262988  0.89955454     0.04600
N557        N  0.44358776  0.27358494  0.90685295     0.67100
H558        H  0.39627896  0.24172127  0.86502658     0.16000
H559        H  0.43704059  0.18209622  0.91833167     0.15700
N560        N  0.38939719  0.15056171  0.87964537     0.74800
O561        O  0.46968157  0.29160037  0.89674474    -0.38700
O562        O  0.42799813  0.28334655  0.91934001    -0.38600
O563        O  0.40391414  0.14022328  0.86543039    -0.39300
O564        O  0.36776853  0.13380746  0.89980931    -0.39400
C565        C  0.40150495  0.18492260  0.78471111    -0.11700
C566        C  0.38467219  0.19854410  0.78648635     0.05400
C567        C  0.39043802  0.22244181  0.76287991    -0.06900
C568        C  0.41374243  0.23296924  0.73851819    -0.07700
C569        C  0.43081727  0.21952739  0.73682491    -0.02200
C570        C  0.42478190  0.19531861  0.76030501     0.04600
N571        N  0.44250063  0.18170794  0.76062756     0.67100
H572        H  0.39651406  0.16611481  0.80244954     0.16000
H573        H  0.41807571  0.25135347  0.72027704     0.15700
N574        N  0.37298682  0.23623701  0.76302681     0.74800
O575        O  0.46962605  0.19678819  0.76899501    -0.38700
O576        O  0.43027326  0.15389970  0.75808019    -0.38600
O577        O  0.38529604  0.26328535  0.77127167    -0.39300
O578        O  0.34921974  0.22481169  0.74454942    -0.39400
C579        C  0.27711479  0.17778301  0.77091260    -0.11700
C580        C  0.29713496  0.19523143  0.79844730     0.05400
C581        C  0.30424441  0.22502584  0.80236794    -0.06900
C582        C  0.29200236  0.23673613  0.77740503    -0.07700
C583        C  0.27337132  0.21958123  0.74859991    -0.02200
C584        C  0.26535570  0.18958905  0.74591087     0.04600
N585        N  0.24772956  0.17161274  0.71585856     0.67100
H586        H  0.27193984  0.15516011  0.76729654     0.16000
H587        H  0.29823163  0.25982077  0.77935316     0.15700
N588        N  0.32518828  0.24433563  0.82937562     0.74800
O589        O  0.25787434  0.17778575  0.68366381    -0.38700
O590        O  0.22473040  0.14691736  0.72220790    -0.38600
O591        O  0.34947707  0.24529502  0.83426473    -0.39300
O592        O  0.32103119  0.26309342  0.84520286    -0.39400
C593        C  0.32390834  0.21408826  0.90646198    -0.11700
C594        C  0.30364208  0.19188322  0.88295748     0.05400
C595        C  0.27331203  0.18170853  0.88544815    -0.06900
C596        C  0.26385485  0.19481773  0.91025391    -0.07700
C597        C  0.28417191  0.21794104  0.93274787    -0.02200
C598        C  0.31450268  0.22754582  0.93097104     0.04600
N599        N  0.33593955  0.25080964  0.95370112     0.67100
H600        H  0.34727103  0.22162204  0.90497511     0.16000
H601        H  0.24040195  0.18689008  0.91167906     0.15700
N602        N  0.25166105  0.15705673  0.86474367     0.74800
O603        O  0.33995709  0.24522036  0.98651217    -0.38700
O604        O  0.35325702  0.27598959  0.93974945    -0.38600
O605        O  0.24114184  0.13139549  0.87855346    -0.39300
O606        O  0.23690471  0.16135884  0.84018832    -0.39400
C607        C  0.08900621  0.31591233  0.79643300    -0.11700
C608        C  0.09867713  0.29678110  0.80857988     0.05400
C609        C  0.08162324  0.26642541  0.79966920    -0.06900
C610        C  0.05904297  0.25742840  0.77317514    -0.07700
C611        C  0.05198023  0.27767869  0.75718764    -0.02200
C612        C  0.06568769  0.30669758  0.77120294     0.04600
N613        N  0.05699870  0.32738068  0.75941619     0.67100
H614        H  0.10052791  0.33859499  0.80545744     0.16000
H615        H  0.04701929  0.23443616  0.76487899     0.15700
N616        N  0.08589494  0.24440587  0.81807867     0.74800
O617        O  0.04275494  0.33395358  0.78095868    -0.38700
O618        O  0.06743699  0.34242802  0.73027670    -0.38600
O619        O  0.08751369  0.24442722  0.85268242    -0.39300
O620        O  0.07994148  0.22100862  0.80157443    -0.39400
C621        C  0.09851082  0.31750522  0.88903645    -0.11700
C622        C  0.11534202  0.30373679  0.88980405     0.05400
C623        C  0.11091665  0.28286199  0.91773429    -0.06900
C624        C  0.08763655  0.27422687  0.94201468    -0.07700
C625        C  0.06963994  0.28682869  0.93951646    -0.02200
C626        C  0.07583829  0.30941429  0.91359560     0.04600
N627        N  0.05807364  0.32282626  0.91002605     0.67100
H628        H  0.10226433  0.33402169  0.86842538     0.16000
H629        H  0.08329843  0.25723596  0.96256392     0.15700
N630        N  0.12804623  0.26860092  0.92018288     0.74800
O631        O  0.06421249  0.34512698  0.92911131    -0.38700
O632        O  0.03969648  0.31563195  0.88378392    -0.38600
O633        O  0.15494439  0.28338755  0.92954467    -0.39300
O634        O  0.11497940  0.24064700  0.92189833    -0.39400
C635        C  0.22127582  0.32323741  0.77649850    -0.11700
C636        C  0.19036297  0.30941678  0.77705114     0.05400
C637        C  0.17324245  0.28790262  0.75055776    -0.06900
C638        C  0.18712216  0.27866335  0.72649345    -0.07700
C639        C  0.21781013  0.29073649  0.72787596    -0.02200
C640        C  0.23517329  0.31384872  0.75254918     0.04600
N641        N  0.26655201  0.32666169  0.75539227     0.67100
H642        H  0.23464342  0.34057151  0.79593453     0.16000
H643        H  0.17361770  0.26149667  0.70691109     0.15700
N644        N  0.14173506  0.27385259  0.74877750     0.74800
O645        O  0.28337346  0.35432177  0.75144054    -0.38700
O646        O  0.27711497  0.31117953  0.76742021    -0.38600
O647        O  0.13032675  0.28628654  0.73047332    -0.39300
O648        O  0.12657445  0.24618055  0.75399958    -0.39400
C649        C  0.20672811  0.26589938  0.88572191    -0.11700
C650        C  0.23109917  0.28620639  0.90693422     0.05400
C651        C  0.24402601  0.31679382  0.89923836    -0.06900
C652        C  0.22949687  0.32641205  0.87520030    -0.07700
C653        C  0.20248950  0.30614175  0.85876012    -0.02200
C654        C  0.19228983  0.27552520  0.86146957     0.04600
N655        N  0.16680760  0.25387591  0.84140217     0.67100
H656        H  0.19749710  0.24226685  0.88995602     0.16000
H657        H  0.23911972  0.34990372  0.86976231     0.15700
N658        N  0.27075801  0.33833932  0.91706744     0.74800
O659        O  0.16646197  0.23162103  0.82819468    -0.38700
O660        O  0.14363637  0.25531558  0.83969073    -0.39000
O661        O  0.29497048  0.34044531  0.90886519    -0.39300
O662        O  0.27082175  0.35783738  0.60357502    -0.39400
C663        C  0.21888781  0.40301372  0.79201058    -0.11700
C664        C  0.18780517  0.38636624  0.79119915     0.05400
C665        C  0.17218159  0.39362597  0.76543883    -0.06900
C666        C  0.18750559  0.41763961  0.74194638    -0.07700
C667        C  0.21844876  0.43448482  0.74266862    -0.02200
C668        C  0.23435132  0.42701412  0.76786755     0.04600
N669        N  0.26592304  0.44347381  0.76938458     0.67100
H670        H  0.23118499  0.39702160  0.81103202     0.16000
H671        H  0.17479929  0.42260698  0.72228852     0.15700
N672        N  0.14076448  0.37697604  0.76221652     0.74800
O673        O  0.27916381  0.46672439  0.78827853    -0.38700
O674        O  0.28035210  0.43275400  0.75594515    -0.38600
O675        O  0.12629832  0.38821429  0.77407048    -0.39300
O676        O  0.12936096  0.35786744  0.73722411    -0.39400
C677        C  0.21726972  0.39081708  0.89871926    -0.11700
C678        C  0.19455133  0.38764399  0.87492503     0.05400
C679        C  0.18655870  0.40967040  0.87462447    -0.06900
C680        C  0.20070336  0.43340153  0.89886454    -0.07700
C681        C  0.22274435  0.43585934  0.92331948    -0.02200
C682        C  0.23184137  0.41488660  0.92215997     0.04600
N683        N  0.25506904  0.41706923  0.94547149     0.67100
H684        H  0.22360144  0.37421971  0.89981019     0.16000
H685        H  0.19369012  0.44958306  0.89937916     0.15700
N686        N  0.16304112  0.40756777  0.85186291     0.74800
O687        O  0.24897752  0.40338802  0.97595356    -0.38700
O688        O  0.28106688  0.42915343  0.93337416    -0.38600
O689        O  0.13753931  0.38501631  0.85429999    -0.39300
O690        O  0.16621452  0.43035198  0.83514776    -0.39400
C691        C  0.16980266  0.82992105  0.20146446     0.46100
H692        H  0.17571050  0.83062835  0.23098319    -0.03000
C693        C  0.15616460  0.82897101  0.13230321     0.46100
H694        H  0.15076145  0.82922739  0.10284577    -0.03000
C695        C  0.18392284  0.81739422  0.17650987    -0.16600
C696        C  0.13667995  0.81142178  0.19359135    -0.16400
C697        C  0.17906315  0.86060988  0.18543616    -0.16800
C698        C  0.17680354  0.81704042  0.14000219    -0.16800
C699        C  0.12929802  0.81040339  0.15703766    -0.16300
C700        C  0.17257580  0.86015755  0.14868126    -0.16600
C701        C  0.33318123  0.66600619  0.20137104     0.46100
H702        H  0.33551878  0.66488233  0.23173006    -0.03000
C703        C  0.32818424  0.66926049  0.13055198     0.46100
H704        H  0.32637524  0.67052236  0.10015491    -0.03000
C705        C  0.31775977  0.63573028  0.18243373    -0.16600
C706        C  0.31516385  0.68023055  0.18922510    -0.16400
C707        C  0.36278873  0.68392936  0.18224385    -0.16800
C708        C  0.31509316  0.63752393  0.14504323    -0.16800
C709        C  0.31265443  0.68220487  0.15182890    -0.16300
C710        C  0.35995411  0.68580324  0.14499723    -0.16600
O711        O  0.47302560  0.72002885  0.29300138    -0.71200
O712        O  0.02176836  0.74290394  0.04500134    -0.71400
O713        O  0.46373727  0.71488772  0.03188169    -0.71200
O714        O  0.03160018  0.74802234  0.30656550    -0.71200
O715        O  0.03209030  0.78971428  0.30397258    -0.71200
O716        O  0.46673205  0.75776442  0.03303536    -0.71200
O717        O  0.02437759  0.78554244  0.04318007    -0.71200
O718        O  0.47363987  0.76169040  0.29343350    -0.71400
V719        V  0.49735027  0.73189876  0.33567772     1.35200
V720        V  0.49935972  0.77270712  0.33502582     1.35200
C721        C  0.46427799  0.73662388  0.27917423     0.78100
C722        C  0.03158466  0.76829432  0.05855954     0.78100
C723        C  0.45460202  0.73110391  0.04377969     0.78000
C724        C  0.04346018  0.77452416  0.29550376     0.78000
O725        O  0.23953546  0.71926045  0.03758436    -0.71200
O726        O  0.22106917  0.74988964  0.28643716    -0.71400
O727        O  0.24591341  0.71753511  0.29901777    -0.71200
O728        O  0.21449549  0.75208296  0.02542126    -0.71200
O729        O  0.25750168  0.79238416  0.02863000    -0.71200
O730        O  0.28920065  0.75750470  0.30228388    -0.71200
O731        O  0.26407425  0.79014065  0.28936921    -0.71200
O732        O  0.28265351  0.75947035  0.04126852    -0.71400
V733        V  0.23108088  0.73555024  0.32893877     1.35200
V734        V  0.27254226  0.77417157  0.33206157     1.35200
C735        C  0.26459640  0.73360488  0.05295867     0.78100
C736        C  0.23944839  0.77497592  0.27308813     0.78100
C737        C  0.27282121  0.73158068  0.29037457     0.78000
C738        C  0.23058813  0.77804383  0.03737993     0.78000
O739        O  0.25945282  0.96872102  0.29921678    -0.71200
O740        O  0.28857374  0.52971792  0.03606812    -0.71400
O741        O  0.25909847  0.97016726  0.03947549    -0.71200
O742        O  0.28842399  0.52798341  0.29604988    -0.71200
O743        O  0.24730003  0.52845746  0.29652928    -0.71200
O744        O  0.21697426  0.96830332  0.03433454    -0.71200
O745        O  0.24592202  0.52697916  0.03611281    -0.71200
O746        O  0.21875686  0.96977698  0.29467971    -0.71400
V747        V  0.27313233  0.49909654  0.00103839     1.35200
V748        V  0.23309821  0.99837558  0.99882397     1.35200
C749        C  0.23430005  0.95919367  0.28453328     0.78100
C750        C  0.27222871  0.53880607  0.04789718     0.78100
C751        C  0.23251173  0.95892359  0.04922345     0.78000
C752        C  0.27287377  0.53853090  0.28419074     0.78000
C753        C  0.32174001  0.61223372  0.09330681    -0.11700
C754        C  0.30273995  0.61234629  0.11965493     0.05400
C755        C  0.27354212  0.58815027  0.12235923    -0.06900
C756        C  0.26429759  0.56388801  0.09929022    -0.07700
C757        C  0.28363973  0.56340416  0.07374464    -0.02200
C758        C  0.31272230  0.58770487  0.07104810     0.04600
N759        N  0.33318735  0.58801378  0.04550273     0.67100
H760        H  0.34419563  0.63079865  0.09114798     0.16000
H761        H  0.24170416  0.54551699  0.10080662     0.15700
N762        N  0.25274357  0.58854473  0.14684898     0.74800
O763        O  0.33894400  0.60327747  0.01626817    -0.38700
O764        O  0.34886814  0.57702356  0.05485534    -0.38600
O765        O  0.25065779  0.61139420  0.14850052    -0.39300
O766        O  0.23358314  0.56493308  0.16255094    -0.39400
C767        C  0.28802371  0.60795856  0.23476188    -0.11700
C768        C  0.30467300  0.60842247  0.20497373     0.05400
C769        C  0.30999789  0.58474890  0.20031142    -0.06900
C770        C  0.29945293  0.56200142  0.22686502    -0.07700
C771        C  0.28407553  0.56265954  0.25741384    -0.02200
C772        C  0.27799260  0.58567532  0.26122921     0.04600
N773        N  0.26305517  0.58765037  0.29271963     0.67100
H774        H  0.28394021  0.62598182  0.23857190     0.16000
H775        H  0.30355698  0.54387670  0.22394445     0.15700
N776        N  0.32664094  0.58364353  0.17018720     0.74800
O777        O  0.27246305  0.58693673  0.32470725    -0.38700
O778        O  0.24336330  0.59448989  0.95524002    -0.38600
O779        O  0.35043107  0.60639238  0.16049092    -0.39300
O780        O  0.31922230  0.55908423  0.15570170    -0.39400
C781        C  0.40530995  0.72873982  0.20994412    -0.11700
C782        C  0.39118502  0.69828704  0.20297000     0.05400
C783        C  0.40335924  0.68176348  0.21776951    -0.06900
C784        C  0.42878403  0.69560548  0.23970787    -0.07700
C785        C  0.44192092  0.72558267  0.24897379    -0.02200
C786        C  0.43048130  0.74256931  0.23288120     0.04600
N787        N  0.44355690  0.77352624  0.24017344     0.67100
H788        H  0.39624532  0.74166675  0.19835014     0.16000
H789        H  0.43698477  0.68202695  0.25167161     0.15700
N790        N  0.38934022  0.65049768  0.21298384     0.74800
O791        O  0.46965362  0.79153464  0.23006895    -0.38700
O792        O  0.42797160  0.78329658  0.25265011    -0.38600
O793        O  0.40385273  0.64015367  0.19877041    -0.39300
O794        O  0.36770957  0.63374740  0.23314723    -0.39400
C795        C  0.40145468  0.68486085  0.11804264    -0.11700
C796        C  0.38462610  0.69848693  0.11981867     0.05400
C797        C  0.39039502  0.72238514  0.09621146    -0.06900
C798        C  0.41369838  0.73290867  0.07184879    -0.07700
C799        C  0.43076958  0.71946283  0.07015521    -0.02200
C800        C  0.42473047  0.69525288  0.09363508     0.04600
N801        N  0.44244430  0.68163697  0.09395593     0.67100
H802        H  0.39646147  0.66605264  0.13578157     0.16000
H803        H  0.41803421  0.75129378  0.05360785     0.15700
N804        N  0.37294876  0.73618565  0.09635941     0.74800
O805        O  0.46956908  0.69671173  0.10232842    -0.38700
O806        O  0.43021254  0.65382880  0.09140163    -0.38600
O807        O  0.38526240  0.76323374  0.10460708    -0.39300
O808        O  0.34918321  0.72476606  0.07787920    -0.39400
C809        C  0.27707920  0.67775631  0.10425208    -0.11700
C810        C  0.29710270  0.69520065  0.13178642     0.05400
C811        C  0.30422219  0.72499820  0.13570712    -0.06900
C812        C  0.29198761  0.73671568  0.11074358    -0.07700
C813        C  0.27335402  0.71956472  0.08193795    -0.02200
C814        C  0.26532756  0.68956943  0.07924965     0.04600
N815        N  0.24769799  0.67159634  0.04919718     0.67100
H816        H  0.27189615  0.65513075  0.10063646     0.16000
H817        H  0.29822486  0.75980257  0.11269155     0.15700
N818        N  0.32516874  0.74430357  0.16271558     0.74800
O819        O  0.25784340  0.67776617  0.01700262    -0.38700
O820        O  0.22469339  0.64690541  0.05554629    -0.38600
O821        O  0.34945356  0.74525469  0.16760472    -0.39300
O822        O  0.32101876  0.76306590  0.17854328    -0.39400
C823        C  0.32388133  0.71405048  0.23980006    -0.11700
C824        C  0.30361027  0.69184845  0.21629603     0.05400
C825        C  0.27328229  0.68168326  0.21878700    -0.06900
C826        C  0.26383224  0.69479921  0.24359237    -0.07700
C827        C  0.28415450  0.71792006  0.26608545    -0.02200
C828        C  0.31448301  0.72751504  0.26430842     0.04600
N829        N  0.33592503  0.75077654  0.28703678     0.67100
H830        H  0.34724237  0.72157706  0.23831265     0.16000
H831        H  0.24038091  0.68687894  0.24501773     0.15700
N832        N  0.25162612  0.65703469  0.19808255     0.74800
O833        O  0.33994286  0.74518587  0.31984707    -0.38700
O834        O  0.35324636  0.77595482  0.27308380    -0.38600
O835        O  0.24110355  0.63137202  0.21188908    -0.39300
O836        O  0.23687089  0.66134201  0.17353078    -0.39400
C837        C  0.08905803  0.81597303  0.12976675    -0.11700
C838        C  0.09872434  0.79683868  0.14191639     0.05400
C839        C  0.08166581  0.76648273  0.13300849    -0.06900
C840        C  0.05908668  0.75748806  0.10651321    -0.07700
C841        C  0.05202899  0.77774106  0.09052244    -0.02200
C842        C  0.06574034  0.80676075  0.10453579     0.04600
N843        N  0.05705627  0.82744703  0.09274614     0.67100
H844        H  0.10058268  0.83865599  0.13878996     0.16000
H845        H  0.04705946  0.73449534  0.09821920     0.15700
N846        N  0.08593068  0.74446067  0.15142317     0.74800
O847        O  0.04281783  0.83402691  0.11428833    -0.38700
O848        O  0.06749453  0.84249032  0.06360396    -0.38600
O849        O  0.08754830  0.74448469  0.18602706    -0.39300
O850        O  0.07997232  0.72106030  0.13492302    -0.39400
C851        C  0.09856038  0.81756504  0.22237030    -0.11700
C852        C  0.11539107  0.80379596  0.22314073     0.05400
C853        C  0.11096620  0.78292380  0.25107419    -0.06900
C854        C  0.08768705  0.77429148  0.27535504    -0.07700
C855        C  0.06969048  0.78689328  0.27285361    -0.02200
C856        C  0.07588864  0.80947687  0.24692985     0.04600
N857        N  0.05812427  0.82288903  0.24335761     0.67100
H858        H  0.10231338  0.83407954  0.20175668     0.16000
H859        H  0.08334897  0.75730194  0.29590633     0.15700
N860        N  0.12809441  0.76866142  0.25352463     0.74800
O861        O  0.06426074  0.84518828  0.26244452    -0.38700
O862        O  0.03974970  0.81569622  0.21711270    -0.38600
O863        O  0.15499015  0.78344539  0.26289801    -0.39300
O864        O  0.11502612  0.74070722  0.25523269    -0.39400
C865        C  0.22131229  0.82326141  0.10983728    -0.11700
C866        C  0.19040022  0.80945095  0.11038830     0.05400
C867        C  0.17327529  0.78794145  0.08389209    -0.06900
C868        C  0.18714877  0.77869568  0.05982706    -0.07700
C869        C  0.21783508  0.79075795  0.06121147    -0.02200
C870        C  0.23520348  0.81386631  0.08588697     0.04600
N871        N  0.26658077  0.82666888  0.08873092     0.67100
H872        H  0.23468387  0.84059267  0.12927469     0.16000
H873        H  0.17364054  0.76153221  0.04024292     0.15700
N874        N  0.14176892  0.77390212  0.08210969     0.74800
O875        O  0.28341030  0.85432744  0.08477585    -0.38700
O876        O  0.27713495  0.81117963  0.10076156    -0.38600
O877        O  0.13036927  0.78633977  0.06379533    -0.39300
O878        O  0.12659959  0.74623165  0.08734046    -0.39400
C879        C  0.20674912  0.76592294  0.21905627    -0.11700
C880        C  0.23112145  0.78622391  0.24027151     0.05400
C881        C  0.24405567  0.81681276  0.23257969    -0.06900
C882        C  0.22953257  0.82643827  0.20854239    -0.07700
C883        C  0.20252438  0.80617477  0.19209871    -0.02200
C884        C  0.19231718  0.77555643  0.19480462     0.04600
N885        N  0.16683342  0.75391319  0.17473430     0.67100
H886        H  0.19751214  0.74228910  0.22328748     0.16000
H887        H  0.23916208  0.84993214  0.20310657     0.15700
N888        N  0.27078911  0.83835210  0.25041198     0.74800
O889        O  0.16648318  0.73165789  0.16152041    -0.38700
O890        O  0.14366467  0.75535747  0.17302826    -0.39000
O891        O  0.29499875  0.84045090  0.24221187    -0.39300
O892        O  0.27085792  0.85785283  0.93691977    -0.39400
C893        C  0.21894422  0.90305781  0.12533938    -0.11700
C894        C  0.18786143  0.88641315  0.12452857     0.05400
C895        C  0.17223952  0.89367390  0.09876692    -0.06900
C896        C  0.18756524  0.91768572  0.07527265    -0.07700
C897        C  0.21850849  0.93452856  0.07599480    -0.02200
C898        C  0.23440942  0.92705642  0.10119442     0.04600
N899        N  0.26598115  0.94351273  0.10271000     0.67100
H900        H  0.23124014  0.89706461  0.14436148     0.16000
H901        H  0.17486000  0.92265422  0.05561440     0.15700
N902        N  0.14082225  0.87702778  0.09554621     0.74800
O903        O  0.27922457  0.96675307  0.12162213    -0.38700
O904        O  0.28040732  0.93279722  0.08925055    -0.38600
O905        O  0.12635991  0.88827043  0.10739943    -0.39300
O906        O  0.12941568  0.85791852  0.07055488    -0.39400
C907        C  0.21732958  0.89086815  0.23204457    -0.11700
C908        C  0.19460970  0.88769448  0.20825374     0.05400
C909        C  0.18661850  0.90972187  0.20795419    -0.06900
C910        C  0.20076507  0.93345310  0.23219352    -0.07700
C911        C  0.22280719  0.93591069  0.25664621    -0.02200
C912        C  0.23190398  0.91493777  0.25548399     0.04600
N913        N  0.25513400  0.91712110  0.27879123     0.67100
H914        H  0.22366132  0.87426849  0.23313363     0.16000
H915        H  0.19375210  0.94963511  0.23270955     0.15700
N916        N  0.16310032  0.90761970  0.18519468     0.74800
O917        O  0.24904552  0.90343847  0.30927224    -0.38700
O918        O  0.28113099  0.92920721  0.26669052    -0.38600
O919        O  0.13759617  0.88507322  0.18764269    -0.39300
O920        O  0.16627674  0.93040259  0.16847278    -0.39400
C921        C  0.16980266  0.82992103  0.53479776     0.46100
H922        H  0.17571048  0.83062832  0.56431650    -0.03000
C923        C  0.15616461  0.82897101  0.46563651     0.46100
H924        H  0.15076146  0.82922741  0.43617908    -0.03000
C925        C  0.18392287  0.81739425  0.50984316    -0.16600
C926        C  0.13667995  0.81142174  0.52692464    -0.16400
C927        C  0.17906311  0.86060987  0.51876949    -0.16800
C928        C  0.17680358  0.81704046  0.47333548    -0.16800
C929        C  0.12929803  0.81040335  0.49037095    -0.16300
C930        C  0.17257578  0.86015755  0.48201460    -0.16600
C931        C  0.33318123  0.66600617  0.53470445     0.46100
H932        H  0.33551877  0.66488230  0.56506346    -0.03000
C933        C  0.32818427  0.66926048  0.46388538     0.46100
H934        H  0.32637529  0.67052237  0.43348831    -0.03000
C935        C  0.31775978  0.63573026  0.51576713    -0.16600
C936        C  0.31516386  0.68023054  0.52255849    -0.16400
C937        C  0.36278874  0.68392934  0.51557728    -0.16800
C938        C  0.31509318  0.63752392  0.47837663    -0.16800
C939        C  0.31265446  0.68220487  0.48516229    -0.16300
C940        C  0.35995414  0.68580322  0.47833066    -0.16600
O941        O  0.47302562  0.72002882  0.62633478    -0.71200
O942        O  0.02176831  0.74290377  0.37833468    -0.71400
O943        O  0.46373721  0.71488755  0.36521504    -0.71200
O944        O  0.03160019  0.74802230  0.63989883    -0.71200
O945        O  0.03209036  0.78971426  0.63730594    -0.71200
O946        O  0.46673200  0.75776425  0.36636873    -0.71200
O947        O  0.02437753  0.78554228  0.37651341    -0.71200
O948        O  0.47363993  0.76169038  0.62676686    -0.71400
V949        V  0.49735031  0.73189875  0.66901111     1.35200
V950        V  0.49935977  0.77270711  0.66835918     1.35200
C951        C  0.46427802  0.73662385  0.61250762     0.78100
C952        C  0.03158461  0.76829416  0.39189288     0.78100
C953        C  0.45460197  0.73110375  0.37711306     0.78000
C954        C  0.04346020  0.77452412  0.62883709     0.78000
O955        O  0.23953545  0.71926038  0.37091773    -0.71200
O956        O  0.22106924  0.74988972  0.61977046    -0.71400
O957        O  0.24591345  0.71753516  0.63235113    -0.71200
O958        O  0.21449547  0.75208288  0.35875463    -0.71200
O959        O  0.25750166  0.79238409  0.36196331    -0.71200
O960        O  0.28920070  0.75750476  0.63561719    -0.71200
O961        O  0.26407432  0.79014074  0.62270250    -0.71200
O962        O  0.28265349  0.75947030  0.37460185    -0.71400
V963        V  0.23108094  0.73555034  0.66227209     1.35200
V964        V  0.27254233  0.77417165  0.66539487     1.35200
C965        C  0.26459640  0.73360483  0.38629202     0.78100
C966        C  0.23944847  0.77497601  0.60642143     0.78100
C967        C  0.27282126  0.73158071  0.62370794     0.78000
C968        C  0.23058811  0.77804377  0.37071327     0.78000
O969        O  0.25945276  0.96872103  0.63255008    -0.71200
O970        O  0.28857376  0.52971797  0.36940139    -0.71400
O971        O  0.25909845  0.97016725  0.37280881    -0.71200
O972        O  0.28842404  0.52798344  0.62938331    -0.71200
O973        O  0.24730007  0.52845749  0.62986272    -0.71200
O974        O  0.21697422  0.96830328  0.36766781    -0.71200
O975        O  0.24592202  0.52697915  0.36944615    -0.71200
O976        O  0.21875680  0.96977699  0.62801307    -0.71400
V977        V  0.27313234  0.49909656  0.33437169     1.35200
V978        V  0.23309817  0.99837555  0.33215727     1.35200
C979        C  0.23429998  0.95919367  0.61786662     0.78100
C980        C  0.27222872  0.53880610  0.38123049     0.78100
C981        C  0.23251169  0.95892356  0.38255674     0.78000
C982        C  0.27287381  0.53853093  0.61752418     0.78000
C983        C  0.32174006  0.61223370  0.42664022    -0.11700
C984        C  0.30273998  0.61234628  0.45298832     0.05400
C985        C  0.27354213  0.58815028  0.45569257    -0.06900
C986        C  0.26429759  0.56388804  0.43262352    -0.07700
C987        C  0.28363974  0.56340419  0.40707794    -0.02200
C988        C  0.31272232  0.58770486  0.40438147     0.04600
N989        N  0.33318737  0.58801377  0.37883612     0.67100
H990        H  0.34419569  0.63079861  0.42448143     0.16000
H991        H  0.24170415  0.54551704  0.43413989     0.15700
N992        N  0.25274358  0.58854475  0.48018232     0.74800
O993        O  0.33894357  0.60327697  0.34960119    -0.38700
O994        O  0.34886852  0.57702400  0.38818895    -0.38600
O995        O  0.25065782  0.61139422  0.48183388    -0.39300
O996        O  0.23358315  0.56493309  0.49588427    -0.39400
C997        C  0.28802370  0.60795854  0.56809526    -0.11700
C998        C  0.30467299  0.60842245  0.53830712     0.05400
C999        C  0.30999788  0.58474889  0.53364482    -0.06900
C1000       C  0.29945295  0.56200142  0.56019844    -0.07700
C1001       C  0.28407556  0.56265955  0.59074727    -0.02200
C1002       C  0.27799260  0.58567531  0.59456260     0.04600
N1003       N  0.26305514  0.58765035  0.62605301     0.67100
H1004       H  0.28394018  0.62598179  0.57190527     0.16000
H1005       H  0.30355701  0.54387671  0.55727788     0.15700
N1006       N  0.32664092  0.58364349  0.50352059     0.74800
O1007       O  0.27246304  0.58693678  0.65804064    -0.38700
O1008       O  0.24336334  0.59448999  0.28857330    -0.38600
O1009       O  0.35043107  0.60639232  0.49382434    -0.39300
O1010       O  0.31922222  0.55908420  0.48903506    -0.39400
C1011       C  0.40530994  0.72873979  0.54327757    -0.11700
C1012       C  0.39118503  0.69828701  0.53630344     0.05400
C1013       C  0.40335926  0.68176345  0.55110291    -0.06900
C1014       C  0.42878406  0.69560545  0.57304125    -0.07700
C1015       C  0.44192094  0.72558263  0.58230720    -0.02200
C1016       C  0.43048130  0.74256926  0.56621464     0.04600
N1017       N  0.44355688  0.77352618  0.57350693     0.67100
H1018       H  0.39624531  0.74166671  0.53168363     0.16000
H1019       H  0.43698481  0.68202692  0.58500497     0.15700
N1020       N  0.38934025  0.65049766  0.54631722     0.74800
O1021       O  0.46965349  0.79153465  0.56340213    -0.38700
O1022       O  0.42797164  0.78329645  0.58598403    -0.38600
O1023       O  0.40385277  0.64015366  0.53210379    -0.39300
O1024       O  0.36770959  0.63374736  0.56648058    -0.39400
C1025       C  0.40145460  0.68486069  0.45137599    -0.11700
C1026       C  0.38462613  0.69848688  0.45315212     0.05400
C1027       C  0.39039514  0.72238516  0.42954500    -0.06900
C1028       C  0.41369847  0.73290863  0.40518230    -0.07700
C1029       C  0.43076955  0.71946268  0.40348860    -0.02200
C1030       C  0.42473037  0.69525267  0.42696839     0.04600
N1031       N  0.44244408  0.68163663  0.42728914     0.67100
H1032       H  0.39646132  0.66605243  0.46911486     0.16000
H1033       H  0.41803435  0.75129379  0.38694143     0.15700
N1034       N  0.37294900  0.73618579  0.42969308     0.74800
O1035       O  0.46956889  0.69671131  0.43566149    -0.38700
O1036       O  0.43021220  0.65382844  0.42473494    -0.38600
O1037       O  0.38526275  0.76323388  0.43794082    -0.39300
O1038       O  0.34918341  0.72476630  0.41121295    -0.39400
C1039       C  0.27707926  0.67775630  0.43758542    -0.11700
C1040       C  0.29710272  0.69520064  0.46511980     0.05400
C1041       C  0.30422218  0.72499817  0.46904051    -0.06900
C1042       C  0.29198759  0.73671565  0.44407696    -0.07700
C1043       C  0.27335403  0.71956468  0.41527131    -0.02200
C1044       C  0.26532761  0.68956941  0.41258299     0.04600
N1045       N  0.24769808  0.67159633  0.38253049     0.67100
H1046       H  0.27189623  0.65513075  0.43396979     0.16000
H1047       H  0.29822481  0.75980252  0.44602494     0.15700
N1048       N  0.32516869  0.74430354  0.49604899     0.74800
O1049       O  0.25784356  0.67776612  0.35033597    -0.38700
O1050       O  0.22469342  0.64690544  0.38887957    -0.38600
O1051       O  0.34945353  0.74525471  0.50093814    -0.39300
O1052       O  0.32101866  0.76306584  0.51187670    -0.39400
C1053       C  0.32388136  0.71405049  0.57313343    -0.11700
C1054       C  0.30361029  0.69184845  0.54962941     0.05400
C1055       C  0.27328232  0.68168327  0.55212039    -0.06900
C1056       C  0.26383227  0.69479921  0.57692577    -0.07700
C1057       C  0.28415454  0.71792006  0.59941886    -0.02200
C1058       C  0.31448304  0.72751504  0.59764182     0.04600
N1059       N  0.33592507  0.75077651  0.62037021     0.67100
H1060       H  0.34724240  0.72157706  0.57164601     0.16000
H1061       H  0.24038094  0.68687895  0.57835114     0.15700
N1062       N  0.25162614  0.65703471  0.53141592     0.74800
O1063       O  0.33994222  0.74518600  0.65318086    -0.38700
O1064       O  0.35324696  0.77595457  0.60641709    -0.38600
O1065       O  0.24110355  0.63137204  0.54522243    -0.39300
O1066       O  0.23687093  0.66134206  0.50686415    -0.39400
C1067       C  0.08905802  0.81597293  0.46310001    -0.11700
C1068       C  0.09872435  0.79683861  0.47524966     0.05400
C1069       C  0.08166583  0.76648265  0.46634179    -0.06900
C1070       C  0.05908668  0.75748795  0.43984652    -0.07700
C1071       C  0.05202897  0.77774093  0.42385575    -0.02200
C1072       C  0.06574031  0.80676063  0.43786907     0.04600
N1073       N  0.05705622  0.82744689  0.42607942     0.67100
H1074       H  0.10058265  0.83865590  0.47212320     0.16000
H1075       H  0.04705948  0.73449522  0.43155253     0.15700
N1076       N  0.08593073  0.74446061  0.48475649     0.74800
O1077       O  0.04281774  0.83402673  0.44762159    -0.38700
O1078       O  0.06749447  0.84249019  0.39693723    -0.38600
O1079       O  0.08754835  0.74448464  0.51936037    -0.39300
O1080       O  0.07997238  0.72106024  0.46825635    -0.39400
C1081       C  0.09856036  0.81756497  0.55570358    -0.11700
C1082       C  0.11539107  0.80379591  0.55647401     0.05400
C1083       C  0.11096621  0.78292376  0.58440750    -0.06900
C1084       C  0.08768707  0.77429144  0.60868835    -0.07700
C1085       C  0.06969048  0.78689322  0.60618691    -0.02200
C1086       C  0.07588861  0.80947679  0.58026312     0.04600
N1087       N  0.05812420  0.82288889  0.57669085     0.67100
H1088       H  0.10231335  0.83407946  0.53508995     0.16000
H1089       H  0.08334901  0.75730192  0.62923966     0.15700
N1090       N  0.12809446  0.76866142  0.58685795     0.74800
O1091       O  0.06426080  0.84518833  0.59577745    -0.38700
O1092       O  0.03974939  0.81569578  0.55044618    -0.38600
O1093       O  0.15499019  0.78344540  0.59623138    -0.39300
O1094       O  0.11502619  0.74070722  0.58856600    -0.39400
C1095       C  0.22131232  0.82326139  0.44317059    -0.11700
C1096       C  0.19040025  0.80945097  0.44372159     0.05400
C1097       C  0.17327531  0.78794150  0.41722536    -0.06900
C1098       C  0.18714878  0.77869569  0.39316035    -0.07700
C1099       C  0.21783508  0.79075791  0.39454480    -0.02200
C1100       C  0.23520349  0.81386626  0.41922031     0.04600
N1101       N  0.26658078  0.82666878  0.42206430     0.67100
H1102       H  0.23468390  0.84059265  0.46260801     0.16000
H1103       H  0.17364055  0.76153223  0.37357621     0.15700
N1104       N  0.14176895  0.77390222  0.41544292     0.74800
O1105       O  0.28341034  0.85432734  0.41810930    -0.38700
O1106       O  0.27713490  0.81117947  0.43409490    -0.38600
O1107       O  0.13036936  0.78633989  0.39712847    -0.39300
O1108       O  0.12659958  0.74623176  0.42067371    -0.39400
C1109       C  0.20674922  0.76592303  0.55238954    -0.11700
C1110       C  0.23112151  0.78622398  0.57360483     0.05400
C1111       C  0.24405570  0.81681284  0.56591304    -0.06900
C1112       C  0.22953259  0.82643829  0.54187574    -0.07700
C1113       C  0.20252444  0.80617483  0.52543200    -0.02200
C1114       C  0.19231727  0.77555650  0.52813788     0.04600
N1115       N  0.16683353  0.75391326  0.50806754     0.67100
H1116       H  0.19751225  0.74228916  0.55662073     0.16000
H1117       H  0.23916213  0.84993234  0.53643995     0.15700
N1118       N  0.27078908  0.83835218  0.58374542     0.74800
O1119       O  0.16648336  0.73165803  0.49485354    -0.38700
O1120       O  0.14366474  0.75535746  0.50636159    -0.39000
O1121       O  0.29499883  0.84045140  0.57554491    -0.39300
O1122       O  0.27085800  0.85785278  0.27025287    -0.39400
C1123       C  0.21894418  0.90305788  0.45867281    -0.11700
C1124       C  0.18786139  0.88641317  0.45786192     0.05400
C1125       C  0.17223948  0.89367386  0.43210020    -0.06900
C1126       C  0.18756520  0.91768564  0.40860588    -0.07700
C1127       C  0.21850846  0.93452852  0.40932807    -0.02200
C1128       C  0.23440938  0.92705645  0.43452778     0.04600
N1129       N  0.26598111  0.94351280  0.43604341     0.67100
H1130       H  0.23124011  0.89706474  0.47769496     0.16000
H1131       H  0.17485997  0.92265410  0.38894756     0.15700
N1132       N  0.14082221  0.87702772  0.42887948     0.74800
O1133       O  0.27922447  0.96675261  0.45495651    -0.38700
O1134       O  0.28040733  0.93279769  0.42258303    -0.38600
O1135       O  0.12635986  0.88827036  0.44073271    -0.39300
O1136       O  0.12941565  0.85791848  0.40388812    -0.39400
C1137       C  0.21732943  0.89086817  0.56537800    -0.11700
C1138       C  0.19460962  0.88769445  0.54158711     0.05400
C1139       C  0.18661844  0.90972186  0.54128752    -0.06900
C1140       C  0.20076501  0.93345308  0.56552685    -0.07700
C1141       C  0.22280709  0.93591067  0.58997959    -0.02200
C1142       C  0.23190385  0.91493771  0.58881743     0.04600
N1143       N  0.25513378  0.91712099  0.61212477     0.67100
H1144       H  0.22366125  0.87426825  0.56646710     0.16000
H1145       H  0.19375205  0.94963514  0.56604284     0.15700
N1146       N  0.16310028  0.90761970  0.51852797     0.74800
O1147       O  0.24904522  0.90343833  0.64260577    -0.38700
O1148       O  0.28113080  0.92920706  0.60002416    -0.38600
O1149       O  0.13759617  0.88507312  0.52097572    -0.39300
O1150       O  0.16627666  0.93040263  0.50180621    -0.39400
C1151       C  0.16980272  0.82992110  0.86813108     0.46100
H1152       H  0.17571055  0.83062840  0.89764983    -0.03000
C1153       C  0.15616465  0.82897104  0.79896984     0.46100
H1154       H  0.15076149  0.82922742  0.76951241    -0.03000
C1155       C  0.18392292  0.81739430  0.84317650    -0.16600
C1156       C  0.13668001  0.81142181  0.86025798    -0.16400
C1157       C  0.17906318  0.86060993  0.85210279    -0.16800
C1158       C  0.17680363  0.81704050  0.80666881    -0.16800
C1159       C  0.12929808  0.81040340  0.82370430    -0.16300
C1160       C  0.17257583  0.86015759  0.81534789    -0.16600
C1161       C  0.33318125  0.66600623  0.86803777     0.46100
H1162       H  0.33551880  0.66488238  0.89839679    -0.03000
C1163       C  0.32818425  0.66926049  0.79721871     0.46100
H1164       H  0.32637525  0.67052236  0.76682164    -0.03000
C1165       C  0.31775979  0.63573031  0.84910048    -0.16600
C1166       C  0.31516387  0.68023059  0.85589181    -0.16400
C1167       C  0.36278875  0.68392939  0.84891058    -0.16800
C1168       C  0.31509317  0.63752395  0.81170998    -0.16800
C1169       C  0.31265445  0.68220490  0.81849562    -0.16300
C1170       C  0.35995412  0.68580325  0.81166396    -0.16600
O1171       O  0.47302567  0.72002901  0.95966804    -0.71200
O1172       O  0.02176838  0.74290379  0.71166803    -0.71400
O1173       O  0.46373726  0.71488756  0.69854844    -0.71200
O1174       O  0.03160025  0.74802250  0.97323216    -0.71200
O1175       O  0.03209038  0.78971444  0.97063923    -0.71200
O1176       O  0.46673204  0.75776425  0.69970208    -0.71200
O1177       O  0.02437755  0.78554228  0.70984677    -0.71200
O1178       O  0.47363994  0.76169055  0.96010013    -0.71400
V1179       V  0.49735033  0.73189892  0.00234439     1.35200
V1180       V  0.49935979  0.77270729  0.00169246     1.35200
C1181       C  0.46427805  0.73662403  0.94584088     0.78100
C1182       C  0.03158467  0.76829418  0.72522622     0.78100
C1183       C  0.45460201  0.73110375  0.71044643     0.78000
C1184       C  0.04346025  0.77452431  0.96217041     0.78000
O1185       O  0.23953549  0.71926049  0.70425108    -0.71200
O1186       O  0.22106924  0.74988976  0.95310379    -0.71400
O1187       O  0.24591346  0.71753522  0.96568440    -0.71200
O1188       O  0.21449554  0.75208300  0.69208792    -0.71200
O1189       O  0.25750175  0.79238419  0.69529661    -0.71200
O1190       O  0.28920070  0.75750481  0.96895055    -0.71200
O1191       O  0.26407432  0.79014077  0.95603589    -0.71200
O1192       O  0.28265356  0.75947038  0.70793516    -0.71400
V1193       V  0.23108092  0.73555034  0.99560540     1.35200
V1194       V  0.27254230  0.77417166  0.99872825     1.35200
C1195       C  0.26459645  0.73360492  0.71962536     0.78100
C1196       C  0.23944847  0.77497605  0.93975479     0.78100
C1197       C  0.27282127  0.73158078  0.95704122     0.78000
C1198       C  0.23058820  0.77804389  0.70404655     0.78000
O1199       O  0.25945283  0.96872102  0.96588347    -0.71200
O1200       O  0.28857379  0.52971796  0.70273483    -0.71400
O1201       O  0.25909844  0.97016728  0.70614210    -0.71200
O1202       O  0.28842402  0.52798341  0.96271660    -0.71200
O1203       O  0.24730005  0.52845746  0.96319595    -0.71200
O1204       O  0.21697423  0.96830337  0.70100119    -0.71200
O1205       O  0.24592204  0.52697914  0.70277958    -0.71200
O1206       O  0.21875686  0.96977700  0.96134644    -0.71400
V1207       V  0.27313238  0.49909658  0.66770510     1.35200
V1208       V  0.23309817  0.99837560  0.66549059     1.35200
C1209       C  0.23430004  0.95919367  0.95119999     0.78100
C1210       C  0.27222873  0.53880609  0.71456392     0.78100
C1211       C  0.23251170  0.95892364  0.71589010     0.78000
C1212       C  0.27287380  0.53853090  0.95085745     0.78000
C1213       C  0.32174004  0.61223372  0.75997359    -0.11700
C1214       C  0.30273997  0.61234630  0.78632169     0.05400
C1215       C  0.27354214  0.58815027  0.78902599    -0.06900
C1216       C  0.26429761  0.56388802  0.76595697    -0.07700
C1217       C  0.28363976  0.56340417  0.74041138    -0.02200
C1218       C  0.31272233  0.58770487  0.73771486     0.04600
N1219       N  0.33318737  0.58801379  0.71216949     0.67100
H1220       H  0.34419566  0.63079865  0.75781476     0.16000
H1221       H  0.24170418  0.54551700  0.76747336     0.15700
N1222       N  0.25274359  0.58854474  0.81351574     0.74800
O1223       O  0.33894374  0.60327719  0.68293472    -0.38700
O1224       O  0.34886839  0.57702385  0.72152222    -0.38600
O1225       O  0.25065778  0.61139419  0.81516723    -0.39300
O1226       O  0.23358319  0.56493309  0.82921773    -0.39400
C1227       C  0.28802376  0.60795858  0.90142864    -0.11700
C1228       C  0.30467305  0.60842251  0.87164049     0.05400
C1229       C  0.30999795  0.58474895  0.86697817    -0.06900
C1230       C  0.29945301  0.56200146  0.89353176    -0.07700
C1231       C  0.28407558  0.56265956  0.92408058    -0.02200
C1232       C  0.27799264  0.58567533  0.92789595     0.04600
N1233       N  0.26305519  0.58765035  0.95938637     0.67100
H1234       H  0.28394024  0.62598184  0.90523867     0.16000
H1235       H  0.30355707  0.54387675  0.89061118     0.15700
N1236       N  0.32664103  0.58364360  0.83685396     0.74800
O1237       O  0.27246309  0.58693677  0.99137399    -0.38700
O1238       O  0.24336324  0.59448987  0.62190664    -0.38600
O1239       O  0.35043115  0.60639247  0.82715770    -0.39300
O1240       O  0.31922240  0.55908432  0.82236845    -0.39400
C1241       C  0.40530996  0.72873989  0.87661080    -0.11700
C1242       C  0.39118505  0.69828711  0.86963673     0.05400
C1243       C  0.40335929  0.68176357  0.88443624    -0.06900
C1244       C  0.42878409  0.69560560  0.90637456    -0.07700
C1245       C  0.44192098  0.72558279  0.91564046    -0.02200
C1246       C  0.43048132  0.74256940  0.89954786     0.04600
N1247       N  0.44355691  0.77352633  0.90684007     0.67100
H1248       H  0.39624532  0.74166680  0.86501682     0.16000
H1249       H  0.43698485  0.68202708  0.91833831     0.15700
N1250       N  0.38934028  0.65049776  0.87965063     0.74800
O1251       O  0.46965362  0.79153475  0.89673554    -0.38700
O1252       O  0.42797160  0.78329667  0.91931677    -0.38600
O1253       O  0.40385279  0.64015374  0.86543726    -0.39300
O1254       O  0.36770961  0.63374749  0.89981400    -0.39400
C1255       C  0.40145465  0.68486077  0.78470940    -0.11700
C1256       C  0.38462611  0.69848689  0.78648540     0.05400
C1257       C  0.39039505  0.72238508  0.76287815    -0.06900
C1258       C  0.41369841  0.73290856  0.73851549    -0.07700
C1259       C  0.43076957  0.71946270  0.73682194    -0.02200
C1260       C  0.42473044  0.69525275  0.76030184     0.04600
N1261       N  0.44244424  0.68163680  0.76062274     0.67100
H1262       H  0.39646141  0.66605257  0.80244836     0.16000
H1263       H  0.41803425  0.75129366  0.72027453     0.15700
N1264       N  0.37294883  0.73618563  0.76302608     0.74800
O1265       O  0.46956908  0.69671160  0.76899495    -0.38700
O1266       O  0.43021242  0.65382860  0.75806887    -0.38600
O1267       O  0.38526251  0.76323374  0.77127371    -0.39300
O1268       O  0.34918327  0.72476605  0.74454590    -0.39400
C1269       C  0.27707922  0.67775635  0.77091880    -0.11700
C1270       C  0.29710274  0.69520069  0.79845312     0.05400
C1271       C  0.30422227  0.72499825  0.80237379    -0.06900
C1272       C  0.29198769  0.73671575  0.77741025    -0.07700
C1273       C  0.27335407  0.71956477  0.74860466    -0.02200
C1274       C  0.26532757  0.68956947  0.74591638     0.04600
N1275       N  0.24769796  0.67159637  0.71586395     0.67100
H1276       H  0.27189613  0.65513077  0.76730321     0.16000
H1277       H  0.29822498  0.75980264  0.77935819     0.15700
N1278       N  0.32516885  0.74430363  0.82938222     0.74800
O1279       O  0.25784344  0.67776601  0.68366942    -0.38700
O1280       O  0.22469317  0.64690561  0.72221311    -0.38600
O1281       O  0.34945365  0.74525471  0.83427135    -0.39300
O1282       O  0.32101892  0.76306600  0.84520989    -0.39400
C1283       C  0.32388138  0.71405057  0.90646672    -0.11700
C1284       C  0.30361031  0.69184852  0.88296272     0.05400
C1285       C  0.27328233  0.68168334  0.88545369    -0.06900
C1286       C  0.26383229  0.69479930  0.91025904    -0.07700
C1287       C  0.28415456  0.71792017  0.93275210    -0.02200
C1288       C  0.31448306  0.72751515  0.93097506     0.04600
N1289       N  0.33592509  0.75077667  0.95370339     0.67100
H1290       H  0.34724242  0.72157714  0.90497931     0.16000
H1291       H  0.24038096  0.68687904  0.91168440     0.15700
N1292       N  0.25162616  0.65703475  0.86474926     0.74800
O1293       O  0.33994284  0.74518605  0.98651374    -0.38700
O1294       O  0.35324648  0.77595491  0.93975036    -0.38600
O1295       O  0.24110364  0.63137209  0.87855578    -0.39300
O1296       O  0.23687088  0.66134205  0.84019753    -0.39400
C1297       C  0.08905807  0.81597297  0.79643336    -0.11700
C1298       C  0.09872439  0.79683865  0.80858302     0.05400
C1299       C  0.08166589  0.76648269  0.79967515    -0.06900
C1300       C  0.05908675  0.75748799  0.77317987    -0.07700
C1301       C  0.05202903  0.77774096  0.75718909    -0.02200
C1302       C  0.06574037  0.80676067  0.77120240     0.04600
N1303       N  0.05705631  0.82744694  0.75941270     0.67100
H1304       H  0.10058270  0.83865595  0.80545654     0.16000
H1305       H  0.04705954  0.73449526  0.76488589     0.15700
N1306       N  0.08593079  0.74446066  0.81808986     0.74800
O1307       O  0.04281813  0.83402707  0.78095499    -0.38700
O1308       O  0.06749445  0.84249008  0.73027038    -0.38600
O1309       O  0.08754842  0.74448471  0.85269375    -0.39300
O1310       O  0.07997245  0.72106029  0.80158974    -0.39400
C1311       C  0.09856046  0.81756513  0.88903691    -0.11700
C1312       C  0.11539113  0.80379603  0.88980736     0.05400
C1313       C  0.11096624  0.78292388  0.91774085    -0.06900
C1314       C  0.08768711  0.77429160  0.94202172    -0.07700
C1315       C  0.06969056  0.78689342  0.93952026    -0.02200
C1316       C  0.07588872  0.80947699  0.91359647     0.04600
N1317       N  0.05812436  0.82288916  0.91002420     0.67100
H1318       H  0.10231349  0.83407963  0.86842328     0.16000
H1319       H  0.08334903  0.75730207  0.96257302     0.15700
N1320       N  0.12809443  0.76866148  0.92019131     0.74800
O1321       O  0.06426078  0.84518836  0.92911117    -0.38700
O1322       O  0.03974987  0.81569641  0.88377920    -0.38600
O1323       O  0.15499020  0.78344543  0.92956460    -0.39300
O1324       O  0.11502612  0.74070728  0.92189947    -0.39400
C1325       C  0.22131239  0.82326146  0.77650393    -0.11700
C1326       C  0.19040031  0.80945104  0.77705492     0.05400
C1327       C  0.17327539  0.78794160  0.75055865    -0.06900
C1328       C  0.18714886  0.77869582  0.72649362    -0.07700
C1329       C  0.21783517  0.79075803  0.72787808    -0.02200
C1330       C  0.23520357  0.81386636  0.75255362     0.04600
N1331       N  0.26658086  0.82666889  0.75539761     0.67100
H1332       H  0.23468396  0.84059270  0.79594138     0.16000
H1333       H  0.17364064  0.76153238  0.70690944     0.15700
N1334       N  0.14176903  0.77390232  0.74877620     0.74800
O1335       O  0.28341041  0.85432745  0.75144265    -0.38700
O1336       O  0.27713498  0.81117958  0.76742819    -0.38600
O1337       O  0.13036944  0.78633996  0.73046167    -0.39300
O1338       O  0.12659965  0.74623188  0.75400708    -0.39400
C1339       C  0.20674927  0.76592307  0.88572286    -0.11700
C1340       C  0.23112156  0.78622405  0.90693816     0.05400
C1341       C  0.24405574  0.81681290  0.89924640    -0.06900
C1342       C  0.22953269  0.82643850  0.87520906    -0.07700
C1343       C  0.20252449  0.80617489  0.85876534    -0.02200
C1344       C  0.19231735  0.77555658  0.86147119     0.04600
N1345       N  0.16683361  0.75391333  0.84140083     0.67100
H1346       H  0.19751234  0.74228926  0.88995401     0.16000
H1347       H  0.23916208  0.84993207  0.86977330     0.15700
N1348       N  0.27078913  0.83835226  0.91707878     0.74800
O1349       O  0.16648346  0.73165813  0.82818677    -0.38700
O1350       O  0.14366479  0.75535749  0.83969496    -0.39000
O1351       O  0.29499882  0.84045117  0.90887867    -0.39300
O1352       O  0.27085776  0.85785246  0.60358690    -0.39400
C1353       C  0.21894423  0.90305786  0.79200600    -0.11700
C1354       C  0.18786144  0.88641318  0.79119519     0.05400
C1355       C  0.17223952  0.89367393  0.76543355    -0.06900
C1356       C  0.18756523  0.91768577  0.74193931    -0.07700
C1357       C  0.21850849  0.93452864  0.74266148    -0.02200
C1358       C  0.23440943  0.92705651  0.76786109     0.04600
N1359       N  0.26598116  0.94351289  0.76937675     0.67100
H1360       H  0.23124016  0.89706467  0.81102810     0.16000
H1361       H  0.17485999  0.92265426  0.72228105     0.15700
N1362       N  0.14082225  0.87702778  0.76221283     0.74800
O1363       O  0.27922451  0.96675371  0.78828801    -0.38700
O1364       O  0.28040740  0.93279711  0.75591823    -0.38600
O1365       O  0.12635989  0.88827042  0.77406600    -0.39300
O1366       O  0.12941571  0.85791851  0.73722150    -0.39400
C1367       C  0.21732959  0.89086799  0.89871131    -0.11700
C1368       C  0.19460973  0.88769453  0.87492038     0.05400
C1369       C  0.18661858  0.90972195  0.87462079    -0.06900
C1370       C  0.20076513  0.93345318  0.89886015    -0.07700
C1371       C  0.22280717  0.93591067  0.92331294    -0.02200
C1372       C  0.23190389  0.91493772  0.92215079     0.04600
N1373       N  0.25513378  0.91712092  0.94545821     0.67100
H1374       H  0.22366111  0.87426875  0.89980044     0.16000
H1375       H  0.19375223  0.94963518  0.89937613     0.15700
N1376       N  0.16310046  0.90761985  0.85186120     0.74800
O1377       O  0.24904515  0.90343864  0.97593946    -0.38700
O1378       O  0.28113073  0.92920657  0.93335751    -0.38600
O1379       O  0.13759634  0.88507326  0.85430886    -0.39300
O1380       O  0.16627687  0.93040280  0.83513949    -0.39400
C1381       C  0.66974647  0.32785394  0.20164459     0.46100
H1382       H  0.67565301  0.32857328  0.23116770    -0.03000
C1383       C  0.65611704  0.32687084  0.13246970     0.46100
H1384       H  0.65073511  0.32710928  0.10300013    -0.03000
C1385       C  0.68354565  0.31494452  0.17676707    -0.16600
C1386       C  0.63659367  0.30967223  0.19382141    -0.16400
C1387       C  0.67936691  0.35858808  0.18546924    -0.16800
C1388       C  0.67642680  0.31456732  0.14025749    -0.16800
C1389       C  0.62921266  0.30864846  0.15726488    -0.16300
C1390       C  0.67287683  0.35810167  0.14870860    -0.16600
C1391       C  0.83335811  0.16398450  0.20139606     0.46100
H1392       H  0.83585954  0.16297642  0.23174164    -0.03000
C1393       C  0.82798202  0.16696277  0.13060443     0.46100
H1394       H  0.82601081  0.16810719  0.10021829    -0.03000
C1395       C  0.81823327  0.13367144  0.18257931    -0.16600
C1396       C  0.81490081  0.17775208  0.18937232    -0.16400
C1397       C  0.86283467  0.18220995  0.18207220    -0.16800
C1398       C  0.81537581  0.13531166  0.14520110    -0.16800
C1399       C  0.81220535  0.17960096  0.15198723    -0.16300
C1400       C  0.85980097  0.18393403  0.14483664    -0.16600
O1401       O  0.97341706  0.21998639  0.29276492    -0.71200
O1402       O  0.52150891  0.24231432  0.04511387    -0.71400
O1403       O  0.96398413  0.21466355  0.03161107    -0.71200
O1404       O  0.53119617  0.24724292  0.30662977    -0.71200
O1405       O  0.53247270  0.28932775  0.30410840    -0.71200
O1406       O  0.96621707  0.25718620  0.03278144    -0.71200
O1407       O  0.52485202  0.28528793  0.04333613    -0.71200
O1408       O  0.97322588  0.26123919  0.29318705    -0.71400
V1409       V  0.99765812  0.23216832  0.33550800     1.35200
V1410       V  0.99892353  0.27261849  0.33482931     1.35200
C1411       C  0.96428888  0.23625663  0.27890873     0.78100
C1412       C  0.53169045  0.26775385  0.05869459     0.78100
C1413       C  0.95444578  0.23054252  0.04349254     0.78000
C1414       C  0.54342033  0.27376913  0.29557019     0.78000
O1415       O  0.73875898  0.21624836  0.03772762    -0.71200
O1416       O  0.72028899  0.24696746  0.28666787    -0.71400
O1417       O  0.74516545  0.21461040  0.29913268    -0.71200
O1418       O  0.71371274  0.24908453  0.02569306    -0.71200
O1419       O  0.75670313  0.28940697  0.02883564    -0.71200
O1420       O  0.78844934  0.25456549  0.30255055    -0.71200
O1421       O  0.76331826  0.28718381  0.28959479    -0.71200
O1422       O  0.78183634  0.25650007  0.04151340    -0.71400
V1423       V  0.73030498  0.23258314  0.32912569     1.35200
V1424       V  0.77175863  0.27120753  0.33229293     1.35200
C1425       C  0.76379170  0.23061734  0.05316183     0.78100
C1426       C  0.73868530  0.27204882  0.27332167     0.78100
C1427       C  0.77209610  0.22866275  0.29057253     0.78000
C1428       C  0.72980918  0.27504805  0.03765839     0.78000
O1429       O  0.76035250  0.46667907  0.29916432    -0.71200
O1430       O  0.78940796  0.02751874  0.03629259    -0.71400
O1431       O  0.75987390  0.46793726  0.03944021    -0.71200
O1432       O  0.78939289  0.02596738  0.29625645    -0.71200
O1433       O  0.74829452  0.02648965  0.29673467    -0.71200
O1434       O  0.71777583  0.46611641  0.03420100    -0.71200
O1435       O  0.74675310  0.02477446  0.03630392    -0.71200
O1436       O  0.71971337  0.46783970  0.29457148    -0.71400
V1437       V  0.77400633  0.99697611  0.00112407     1.35200
V1438       V  0.73399706  0.49630174  0.99886492     1.35200
C1439       C  0.73523486  0.45723902  0.28440595     0.78100
C1440       C  0.77303875  0.03657117  0.04815446     0.78100
C1441       C  0.73325996  0.45667182  0.04908062     0.78000
C1442       C  0.77388287  0.03657423  0.28444560     0.78000
C1443       C  0.82225649  0.11008108  0.09355635    -0.11700
C1444       C  0.80320017  0.11006435  0.11992498     0.05400
C1445       C  0.77410222  0.08570450  0.12273280    -0.06900
C1446       C  0.76499921  0.06144154  0.09970608    -0.07700
C1447       C  0.78438381  0.06111005  0.07409664    -0.02200
C1448       C  0.81338329  0.08554919  0.07133809     0.04600
N1449       N  0.83388694  0.08601125  0.04572877     0.67100
H1450       H  0.84463867  0.12877094  0.09132621     0.16000
H1451       H  0.74246477  0.04296126  0.10127254     0.15700
N1452       N  0.75324120  0.08593681  0.14726267     0.74800
O1453       O  0.83964643  0.10140037  0.01660157    -0.38700
O1454       O  0.84958521  0.07500890  0.05493368    -0.38600
O1455       O  0.75090111  0.10864215  0.14884172    -0.39300
O1456       O  0.73426460  0.06228862  0.16307705    -0.39400
C1457       C  0.78873600  0.10589153  0.23503534    -0.11700
C1458       C  0.80542694  0.10644560  0.20524485     0.05400
C1459       C  0.81099291  0.08292909  0.20065100    -0.06900
C1460       C  0.80057976  0.06020847  0.22723523    -0.07700
C1461       C  0.78511393  0.06075950  0.25775519    -0.02200
C1462       C  0.77885889  0.08365933  0.26154572     0.04600
N1463       N  0.76384684  0.08554258  0.29301953     0.67100
H1464       H  0.78446270  0.12379377  0.23879089     0.16000
H1465       H  0.80481892  0.04217221  0.22433534     0.15700
N1466       N  0.82770473  0.08194096  0.17053010     0.74800
O1467       O  0.77324050  0.08484262  0.32502078    -0.38700
O1468       O  0.74406279  0.09225277  0.95551811    -0.38600
O1469       O  0.85137161  0.10479851  0.16075082    -0.39300
O1470       O  0.82046600  0.05741094  0.15609406    -0.39400
C1471       C  0.90505606  0.22740975  0.20951978    -0.11700
C1472       C  0.89129469  0.19696695  0.20264704     0.05400
C1473       C  0.90382852  0.18079701  0.21752032    -0.06900
C1474       C  0.92922512  0.19496144  0.23946795    -0.07700
C1475       C  0.94197900  0.22491517  0.24866030    -0.02200
C1476       C  0.93020048  0.24156239  0.23245667     0.04600
N1477       N  0.94290127  0.27249129  0.23964079     0.67100
H1478       H  0.89571724  0.24006890  0.19786819     0.16000
H1479       H  0.93769927  0.18164086  0.25150389     0.15700
N1480       N  0.89020448  0.14956014  0.21278733     0.74800
O1481       O  0.96895981  0.29072970  0.22961828    -0.38700
O1482       O  0.92702819  0.28198110  0.25195779    -0.38600
O1483       O  0.90496207  0.13954229  0.19845139    -0.39300
O1484       O  0.86873877  0.13260372  0.23306062    -0.39400
C1485       C  0.90165692  0.18374340  0.11776780    -0.11700
C1486       C  0.88438024  0.19688461  0.11950815     0.05400
C1487       C  0.88969704  0.22060217  0.09581384    -0.06900
C1488       C  0.91302833  0.23146908  0.07144343    -0.07700
C1489       C  0.93057169  0.21853725  0.06982867    -0.02200
C1490       C  0.92496429  0.19448306  0.09336121     0.04600
N1491       N  0.94316111  0.18139885  0.09376399     0.67100
H1492       H  0.89701058  0.16506312  0.13556612     0.16000
H1493       H  0.91702966  0.24972157  0.05314821     0.15700
N1494       N  0.87177246  0.23388159  0.09588505     0.74800
O1495       O  0.97025953  0.19690964  0.10209534    -0.38700
O1496       O  0.93138919  0.15362761  0.09135189    -0.38600
O1497       O  0.88365344  0.26091775  0.10400763    -0.39300
O1498       O  0.84799687  0.22204688  0.07741244    -0.39400
C1499       C  0.77644699  0.17490955  0.10452391    -0.11700
C1500       C  0.79644446  0.19241538  0.13204530     0.05400
C1501       C  0.80341490  0.22216606  0.13597939    -0.06900
C1502       C  0.79110303  0.23379495  0.11101403    -0.07700
C1503       C  0.77254114  0.21660958  0.08218560    -0.02200
C1504       C  0.76461808  0.18664306  0.07951132     0.04600
N1505       N  0.74703988  0.16863867  0.04945146     0.67100
H1506       H  0.77137695  0.15232115  0.10090130     0.16000
H1507       H  0.79724887  0.25685652  0.11296069     0.15700
N1508       N  0.82431294  0.24153331  0.16298194     0.74800
O1509       O  0.75719702  0.17483399  0.01726314    -0.38700
O1510       O  0.72406760  0.14391883  0.05578983    -0.38600
O1511       O  0.84871969  0.24271998  0.16774006    -0.39300
O1512       O  0.82000093  0.26016065  0.17888131    -0.39400
C1513       C  0.82340458  0.21145401  0.24001613    -0.11700
C1514       C  0.80321159  0.18918300  0.21653031     0.05400
C1515       C  0.77284162  0.17881462  0.21908492    -0.06900
C1516       C  0.76327362  0.19183298  0.24389049    -0.07700
C1517       C  0.78352112  0.21505339  0.26632219    -0.02200
C1518       C  0.81389105  0.22481721  0.26451651     0.04600
N1519       N  0.83527362  0.24818725  0.28716785     0.67100
H1520       H  0.84680025  0.21914535  0.23848655     0.16000
H1521       H  0.73979386  0.18376308  0.24535956     0.15700
N1522       N  0.75127516  0.15405770  0.19845171     0.74800
O1523       O  0.83969827  0.24261891  0.31981493    -0.38700
O1524       O  0.85221485  0.27347272  0.27321856    -0.38600
O1525       O  0.74110287  0.12841880  0.21219457    -0.39300
O1526       O  0.73626197  0.15814556  0.17405731    -0.39400
C1527       C  0.58928308  0.31480221  0.13014688    -0.11700
C1528       C  0.59866008  0.29540883  0.14217328     0.05400
C1529       C  0.58136916  0.26510735  0.13310517    -0.06900
C1530       C  0.55886311  0.25640931  0.10655535    -0.07700
C1531       C  0.55210469  0.27691574  0.09067820    -0.02200
C1532       C  0.56603760  0.30589312  0.10486816     0.04600
N1533       N  0.55765435  0.32683946  0.09321762     0.67100
H1534       H  0.60100273  0.33746056  0.13926343     0.16000
H1535       H  0.54665764  0.23345271  0.09813057     0.15700
N1536       N  0.58533439  0.24285887  0.15142031     0.74800
O1537       O  0.54371658  0.33368388  0.11491150    -0.38700
O1538       O  0.56816164  0.34187749  0.06408755    -0.38600
O1539       O  0.58708740  0.24288069  0.18601549    -0.39300
O1540       O  0.57902300  0.21936956  0.13488295    -0.39400
C1541       C  0.59887210  0.31642698  0.22262547    -0.11700
C1542       C  0.61536013  0.30229546  0.22337691     0.05400
C1543       C  0.61057413  0.28123716  0.25121235    -0.06900
C1544       C  0.58726644  0.27280362  0.27539174    -0.07700
C1545       C  0.56960178  0.28577491  0.27288330    -0.02200
C1546       C  0.57615533  0.30850521  0.24705319     0.04600
N1547       N  0.55867291  0.32221808  0.24340183     0.67100
H1548       H  0.60289319  0.33306645  0.20208481     0.16000
H1549       H  0.58266659  0.25571188  0.29589641     0.15700
N1550       N  0.62739662  0.26665120  0.25370359     0.74800
O1551       O  0.56543152  0.34500358  0.26181974    -0.38700
O1552       O  0.53981029  0.31463470  0.21767834    -0.38600
O1553       O  0.65435400  0.28122176  0.26284733    -0.39300
O1554       O  0.61405540  0.23869009  0.25560998    -0.39400
C1555       C  0.72077869  0.32049815  0.11003567    -0.11700
C1556       C  0.68987843  0.30674891  0.11070011     0.05400
C1557       C  0.67264662  0.28509517  0.08439855    -0.06900
C1558       C  0.68642419  0.27570621  0.06036701    -0.07700
C1559       C  0.71711407  0.28777307  0.06158315    -0.02200
C1560       C  0.73457371  0.31096852  0.08612355     0.04600
N1561       N  0.76595602  0.32374943  0.08886278     0.67100
H1562       H  0.73422047  0.33790265  0.12935837     0.16000
H1563       H  0.67284738  0.25846674  0.04090151     0.15700
N1564       N  0.64113835  0.27109879  0.08274656     0.74800
O1565       O  0.78279003  0.35142220  0.08506807    -0.38700
O1566       O  0.77651326  0.30821651  0.10071546    -0.38600
O1567       O  0.62972374  0.28370591  0.06483279    -0.39300
O1568       O  0.62593990  0.24339386  0.08767539    -0.39400
C1569       C  0.70585490  0.26310697  0.21945644    -0.11700
C1570       C  0.73037525  0.28333776  0.24052635     0.05400
C1571       C  0.74351014  0.31393102  0.23270809    -0.06900
C1572       C  0.72906792  0.32366788  0.20870030    -0.07700
C1573       C  0.70195213  0.30351445  0.19239733    -0.02200
C1574       C  0.69150403  0.27284879  0.19522507     0.04600
N1575       N  0.66587807  0.25127526  0.17529141     0.67100
H1576       H  0.69645540  0.23946013  0.22378149     0.16000
H1577       H  0.73885502  0.34716311  0.20315889     0.15700
N1578       N  0.77039857  0.33537906  0.25034647     0.74800
O1579       O  0.66520864  0.22878067  0.16234662    -0.38700
O1580       O  0.64290373  0.25306125  0.17339496    -0.39000
O1581       O  0.79443626  0.33706812  0.24221636    -0.39300
O1582       O  0.77080572  0.35520575  0.93654212    -0.39400
C1583       C  0.71939021  0.40073583  0.12522540    -0.11700
C1584       C  0.68830042  0.38426437  0.12444098     0.05400
C1585       C  0.67278213  0.39160449  0.09861353    -0.06900
C1586       C  0.68821588  0.41552444  0.07503570    -0.07700
C1587       C  0.71916391  0.43221888  0.07575698    -0.02200
C1588       C  0.73496212  0.42464520  0.10099083     0.04600
N1589       N  0.76653468  0.44090213  0.10244206     0.67100
H1590       H  0.73160424  0.39466799  0.14428562     0.16000
H1591       H  0.67557950  0.42057342  0.05536270     0.15700
N1592       N  0.64135511  0.37519535  0.09548600     0.74800
O1593       O  0.77992907  0.46366984  0.12215554    -0.38700
O1594       O  0.78079472  0.43034949  0.08809014    -0.38600
O1595       O  0.62713323  0.38673324  0.10722991    -0.39300
O1596       O  0.62976038  0.35601645  0.07059484    -0.39400
C1597       C  0.71776844  0.38870396  0.23205018    -0.11700
C1598       C  0.69515851  0.38572356  0.20818264     0.05400
C1599       C  0.68749298  0.40799315  0.20772166    -0.06900
C1600       C  0.70180903  0.43174958  0.23189700    -0.07700
C1601       C  0.72371690  0.43400940  0.25644126    -0.02200
C1602       C  0.73253196  0.41281664  0.25540828     0.04600
N1603       N  0.75564666  0.41481639  0.27878693     0.67100
H1604       H  0.72386263  0.37193548  0.23325862     0.16000
H1605       H  0.69500973  0.44809855  0.23231729     0.15700
N1606       N  0.66410922  0.40611463  0.18488873     0.74800
O1607       O  0.74939915  0.40077758  0.30902060    -0.38700
O1608       O  0.78173059  0.42712886  0.26693078    -0.38600
O1609       O  0.63845222  0.38383165  0.18753139    -0.39300
O1610       O  0.66760020  0.42893872  0.16795189    -0.39400
C1611       C  0.66974648  0.32785395  0.53497798     0.46100
H1612       H  0.67565300  0.32857327  0.56450109    -0.03000
C1613       C  0.65611713  0.32687089  0.46580308     0.46100
H1614       H  0.65073522  0.32710935  0.43633350    -0.03000
C1615       C  0.68354569  0.31494455  0.51010047    -0.16600
C1616       C  0.63659369  0.30967224  0.52715475    -0.16400
C1617       C  0.67936694  0.35858809  0.51880265    -0.16800
C1618       C  0.67642688  0.31456737  0.47359088    -0.16800
C1619       C  0.62921272  0.30864850  0.49059821    -0.16300
C1620       C  0.67287690  0.35810172  0.48204200    -0.16600
C1621       C  0.83335807  0.16398452  0.53472932     0.46100
H1622       H  0.83585950  0.16297645  0.56507491    -0.03000
C1623       C  0.82798199  0.16696277  0.46393769     0.46100
H1624       H  0.82601076  0.16810716  0.43355155    -0.03000
C1625       C  0.81823322  0.13367145  0.51591258    -0.16600
C1626       C  0.81490079  0.17775212  0.52270557    -0.16400
C1627       C  0.86283464  0.18220995  0.51540546    -0.16800
C1628       C  0.81537576  0.13531167  0.47853437    -0.16800
C1629       C  0.81220534  0.17960099  0.48532048    -0.16300
C1630       C  0.85980094  0.18393402  0.47816990    -0.16600
O1631       O  0.97341704  0.21998646  0.62609819    -0.71200
O1632       O  0.52150895  0.24231436  0.37844719    -0.71400
O1633       O  0.96398418  0.21466361  0.36494446    -0.71200
O1634       O  0.53119614  0.24724297  0.63996304    -0.71200
O1635       O  0.53247267  0.28932779  0.63744165    -0.71200
O1636       O  0.96621710  0.25718626  0.36611475    -0.71200
O1637       O  0.52485207  0.28528798  0.37666943    -0.71200
O1638       O  0.97322583  0.26123924  0.62652035    -0.71400
V1639       V  0.99765809  0.23216838  0.66884128     1.35200
V1640       V  0.99892350  0.27261855  0.66816259     1.35200
C1641       C  0.96428884  0.23625669  0.61224202     0.78100
C1642       C  0.53169050  0.26775390  0.39202789     0.78100
C1643       C  0.95444583  0.23054259  0.37682589     0.78000
C1644       C  0.54342031  0.27376919  0.62890346     0.78000
O1645       O  0.73875907  0.21624850  0.37106087    -0.71200
O1646       O  0.72028897  0.24696739  0.62000125    -0.71400
O1647       O  0.74516544  0.21461034  0.63246605    -0.71200
O1648       O  0.71371284  0.24908467  0.35902634    -0.71200
O1649       O  0.75670324  0.28940711  0.36216892    -0.71200
O1650       O  0.78844932  0.25456543  0.63588397    -0.71200
O1651       O  0.76331823  0.28718374  0.62292823    -0.71200
O1652       O  0.78183644  0.25650020  0.37484664    -0.71400
V1653       V  0.73030494  0.23258305  0.66245907     1.35200
V1654       V  0.77175858  0.27120745  0.66562636     1.35200
C1655       C  0.76379180  0.23061746  0.38649507     0.78100
C1656       C  0.73868529  0.27204877  0.60665508     0.78100
C1657       C  0.77209609  0.22866270  0.62390592     0.78000
C1658       C  0.72980929  0.27504819  0.37099168     0.78000
O1659       O  0.76035257  0.46667912  0.63249769    -0.71200
O1660       O  0.78940791  0.02751873  0.36962591    -0.71400
O1661       O  0.75987397  0.46793729  0.37277354    -0.71200
O1662       O  0.78939286  0.02596739  0.62958970    -0.71200
O1663       O  0.74829448  0.02648965  0.63006793    -0.71200
O1664       O  0.71777590  0.46611643  0.36753437    -0.71200
O1665       O  0.74675304  0.02477442  0.36963723    -0.71200
O1666       O  0.71971343  0.46783973  0.62790483    -0.71400
V1667       V  0.77400630  0.99697610  0.33445740     1.35200
V1668       V  0.73399710  0.49630176  0.33219828     1.35200
C1669       C  0.73523494  0.45723907  0.61773929     0.78100
C1670       C  0.77303869  0.03657115  0.38148777     0.78100
C1671       C  0.73326004  0.45667183  0.38241396     0.78000
C1672       C  0.77388283  0.03657423  0.61777886     0.78000
C1673       C  0.82225642  0.11008108  0.42688962    -0.11700
C1674       C  0.80320011  0.11006435  0.45325827     0.05400
C1675       C  0.77410216  0.08570449  0.45606610    -0.06900
C1676       C  0.76499915  0.06144153  0.43303939    -0.07700
C1677       C  0.78438374  0.06111004  0.40742994    -0.02200
C1678       C  0.81338322  0.08554920  0.40467135     0.04600
N1679       N  0.83388685  0.08601127  0.37906200     0.67100
H1680       H  0.84463860  0.12877095  0.42465946     0.16000
H1681       H  0.74246472  0.04296124  0.43460586     0.15700
N1682       N  0.75324115  0.08593680  0.48059600     0.74800
O1683       O  0.83964629  0.10140036  0.34993478    -0.38700
O1684       O  0.84958516  0.07500895  0.38826689    -0.38600
O1685       O  0.75090111  0.10864216  0.48217514    -0.39300
O1686       O  0.73426452  0.06228859  0.49641033    -0.39400
C1687       C  0.78873596  0.10589154  0.56836861    -0.11700
C1688       C  0.80542690  0.10644562  0.53857812     0.05400
C1689       C  0.81099289  0.08292912  0.53398427    -0.06900
C1690       C  0.80057974  0.06020849  0.56056849    -0.07700
C1691       C  0.78511389  0.06075951  0.59108844    -0.02200
C1692       C  0.77885884  0.08365933  0.59487898     0.04600
N1693       N  0.76384679  0.08554257  0.62635279     0.67100
H1694       H  0.78446264  0.12379377  0.57212415     0.16000
H1695       H  0.80481890  0.04217224  0.55766861     0.15700
N1696       N  0.82770475  0.08194102  0.50386340     0.74800
O1697       O  0.77324049  0.08484266  0.65835403    -0.38700
O1698       O  0.74406259  0.09225257  0.28885131    -0.38600
O1699       O  0.85137160  0.10479860  0.49408410    -0.39300
O1700       O  0.82046607  0.05741101  0.48942738    -0.39400
C1701       C  0.90505602  0.22740977  0.54285304    -0.11700
C1702       C  0.89129465  0.19696696  0.53598032     0.05400
C1703       C  0.90382848  0.18079703  0.55085364    -0.06900
C1704       C  0.92922508  0.19496148  0.57280126    -0.07700
C1705       C  0.94197896  0.22491521  0.58199359    -0.02200
C1706       C  0.93020043  0.24156242  0.56578995     0.04600
N1707       N  0.94290120  0.27249132  0.57297406     0.67100
H1708       H  0.89571719  0.24006891  0.53120143     0.16000
H1709       H  0.93769923  0.18164090  0.58483722     0.15700
N1710       N  0.89020443  0.14956015  0.54612071     0.74800
O1711       O  0.96895981  0.29072973  0.56295177    -0.38700
O1712       O  0.92702806  0.28198115  0.58529081    -0.38600
O1713       O  0.90496202  0.13954227  0.53178486    -0.39300
O1714       O  0.86873868  0.13260377  0.56639398    -0.39400
C1715       C  0.90165707  0.18374359  0.45110127    -0.11700
C1716       C  0.88438021  0.19688462  0.45284139     0.05400
C1717       C  0.88969686  0.22060202  0.42914687    -0.06900
C1718       C  0.91302819  0.23146897  0.40477650    -0.07700
C1719       C  0.93057173  0.21853733  0.40316200    -0.02200
C1720       C  0.92496447  0.19448330  0.42669474     0.04600
N1721       N  0.94316150  0.18139931  0.42709779     0.67100
H1722       H  0.89701085  0.16506342  0.46889974     0.16000
H1723       H  0.91702941  0.24972133  0.38648112     0.15700
N1724       N  0.87177212  0.23388126  0.42921782     0.74800
O1725       O  0.97025992  0.19691033  0.43542903    -0.38700
O1726       O  0.93138978  0.15362807  0.42468600    -0.38600
O1727       O  0.88365291  0.26091741  0.43734037    -0.39300
O1728       O  0.84799663  0.22204644  0.41074501    -0.39400
C1729       C  0.77644697  0.17490961  0.43785720    -0.11700
C1730       C  0.79644449  0.19241544  0.46537854     0.05400
C1731       C  0.80341501  0.22216615  0.46931258    -0.06900
C1732       C  0.79110318  0.23379507  0.44434722    -0.07700
C1733       C  0.77254123  0.21660969  0.41551882    -0.02200
C1734       C  0.76461809  0.18664314  0.41284459     0.04600
N1735       N  0.74703983  0.16863873  0.38278478     0.67100
H1736       H  0.77137687  0.15232119  0.43423464     0.16000
H1737       H  0.79724907  0.25685666  0.44629385     0.15700
N1738       N  0.82431309  0.24153340  0.49631511     0.74800
O1739       O  0.75719684  0.17483411  0.35059641    -0.38700
O1740       O  0.72406767  0.14391881  0.38912321    -0.38600
O1741       O  0.84871981  0.24271998  0.50107325    -0.39300
O1742       O  0.82000116  0.26016080  0.51221444    -0.39400
C1743       C  0.82340459  0.21145408  0.57334935    -0.11700
C1744       C  0.80321158  0.18918306  0.54986356     0.05400
C1745       C  0.77284162  0.17881464  0.55241822    -0.06900
C1746       C  0.76327361  0.19183296  0.57722384    -0.07700
C1747       C  0.78352111  0.21505338  0.59965553    -0.02200
C1748       C  0.81389106  0.22481725  0.59784977     0.04600
N1749       N  0.83527363  0.24818732  0.62050108     0.67100
H1750       H  0.84680026  0.21914544  0.57181973     0.16000
H1751       H  0.73979384  0.18376302  0.57869296     0.15700
N1752       N  0.75127515  0.15405770  0.53178502     0.74800
O1753       O  0.83969847  0.24261897  0.65314807    -0.38700
O1754       O  0.85221471  0.27347283  0.60655180    -0.38600
O1755       O  0.74110277  0.12841882  0.54552798    -0.39300
O1756       O  0.73626203  0.15814558  0.50739053    -0.39400
C1757       C  0.58928315  0.31480226  0.46348018    -0.11700
C1758       C  0.59866015  0.29540887  0.47550657     0.05400
C1759       C  0.58136924  0.26510740  0.46643844    -0.06900
C1760       C  0.55886319  0.25640937  0.43988862    -0.07700
C1761       C  0.55210476  0.27691580  0.42401149    -0.02200
C1762       C  0.56603768  0.30589317  0.43820145     0.04600
N1763       N  0.55765443  0.32683952  0.42655091     0.67100
H1764       H  0.60100279  0.33746060  0.47259675     0.16000
H1765       H  0.54665772  0.23345277  0.43146384     0.15700
N1766       N  0.58533446  0.24285891  0.48475357     0.74800
O1767       O  0.54371669  0.33368396  0.44824481    -0.38700
O1768       O  0.56816171  0.34187754  0.39742083    -0.38600
O1769       O  0.58708744  0.24288070  0.51934875    -0.39300
O1770       O  0.57902309  0.21936961  0.46821619    -0.39400
C1771       C  0.59887211  0.31642700  0.55595876    -0.11700
C1772       C  0.61536012  0.30229546  0.55671021     0.05400
C1773       C  0.61057409  0.28123715  0.58454565    -0.06900
C1774       C  0.58726640  0.27280364  0.60872503    -0.07700
C1775       C  0.56960177  0.28577496  0.60621660    -0.02200
C1776       C  0.57615535  0.30850526  0.58038647     0.04600
N1777       N  0.55867297  0.32221819  0.57673513     0.67100
H1778       H  0.60289323  0.33306648  0.53541809     0.16000
H1779       H  0.58266653  0.25571189  0.62922971     0.15700
N1780       N  0.62739655  0.26665116  0.58703690     0.74800
O1781       O  0.56543140  0.34500346  0.59515343    -0.38700
O1782       O  0.53981068  0.31463518  0.55101131    -0.38600
O1783       O  0.65435394  0.28122169  0.59618057    -0.39300
O1784       O  0.61405529  0.23869004  0.58894334    -0.39400
C1785       C  0.72077879  0.32049818  0.44336913    -0.11700
C1786       C  0.68987853  0.30674897  0.44403351     0.05400
C1787       C  0.67264673  0.28509531  0.41773186    -0.06900
C1788       C  0.68642431  0.27570638  0.39370029    -0.07700
C1789       C  0.71711419  0.28777320  0.39491647    -0.02200
C1790       C  0.73457382  0.31096858  0.41945696     0.04600
N1791       N  0.76595612  0.32374944  0.42219625     0.67100
H1792       H  0.73422056  0.33790263  0.46269188     0.16000
H1793       H  0.67284751  0.25846696  0.37423473     0.15700
N1794       N  0.64113848  0.27109896  0.41607982     0.74800
O1795       O  0.78279017  0.35142223  0.41840170    -0.38700
O1796       O  0.77651331  0.30821645  0.43404880    -0.38600
O1797       O  0.62972391  0.28370609  0.39816596    -0.39300
O1798       O  0.62594000  0.24339403  0.42100867    -0.39400
C1799       C  0.70585493  0.26310696  0.55278981    -0.11700
C1800       C  0.73037528  0.28333774  0.57385974     0.05400
C1801       C  0.74351017  0.31393101  0.56604152    -0.06900
C1802       C  0.72906793  0.32366787  0.54203376    -0.07700
C1803       C  0.70195216  0.30351446  0.52573076    -0.02200
C1804       C  0.69150407  0.27284880  0.52855845     0.04600
N1805       N  0.66587812  0.25127529  0.50862476     0.67100
H1806       H  0.69645542  0.23946011  0.55711483     0.16000
H1807       H  0.73885504  0.34716312  0.53649236     0.15700
N1808       N  0.77039865  0.33537904  0.58367983     0.74800
O1809       O  0.66520871  0.22878072  0.49567992    -0.38700
O1810       O  0.64290377  0.25306126  0.50672833    -0.39000
O1811       O  0.79443619  0.33706752  0.57555040    -0.39300
O1812       O  0.77080557  0.35520551  0.26987599    -0.39400
C1813       C  0.71939028  0.40073594  0.45855887    -0.11700
C1814       C  0.68830050  0.38426443  0.45777440     0.05400
C1815       C  0.67278221  0.39160450  0.43194688    -0.06900
C1816       C  0.68821596  0.41552442  0.40836899    -0.07700
C1817       C  0.71916399  0.43221888  0.40909031    -0.02200
C1818       C  0.73496219  0.42464527  0.43432425     0.04600
N1819       N  0.76653475  0.44090222  0.43577549     0.67100
H1820       H  0.73160431  0.39466814  0.47761915     0.16000
H1821       H  0.67557958  0.42057335  0.38869594     0.15700
N1822       N  0.64135519  0.37519536  0.42881934     0.74800
O1823       O  0.77992911  0.46366943  0.45548981    -0.38700
O1824       O  0.78079482  0.43034995  0.42142272    -0.38600
O1825       O  0.62713331  0.38673324  0.44056328    -0.39300
O1826       O  0.62976047  0.35601649  0.40392814    -0.39400
C1827       C  0.71776844  0.38870396  0.56538364    -0.11700
C1828       C  0.69515853  0.38572357  0.54151607     0.05400
C1829       C  0.68749304  0.40799319  0.54105504    -0.06900
C1830       C  0.70180913  0.43174965  0.56523032    -0.07700
C1831       C  0.72371701  0.43400948  0.58977456    -0.02200
C1832       C  0.73253204  0.41281669  0.58874165     0.04600
N1833       N  0.75564678  0.41481648  0.61212022     0.67100
H1834       H  0.72386261  0.37193543  0.56659211     0.16000
H1835       H  0.69500984  0.44809863  0.56565059     0.15700
N1836       N  0.66410927  0.40611465  0.51822213     0.74800
O1837       O  0.74939926  0.40077668  0.64235319    -0.38700
O1838       O  0.78173089  0.42712999  0.60026448    -0.38600
O1839       O  0.63845225  0.38383172  0.52086491    -0.39300
O1840       O  0.66760027  0.42893872  0.50128520    -0.39400
C1841       C  0.66974642  0.32785391  0.86831130     0.46100
H1842       H  0.67565294  0.32857324  0.89783441    -0.03000
C1843       C  0.65611706  0.32687083  0.79913639     0.46100
H1844       H  0.65073516  0.32710929  0.76966681    -0.03000
C1845       C  0.68354560  0.31494447  0.84343381    -0.16600
C1846       C  0.63659363  0.30967222  0.86048807    -0.16400
C1847       C  0.67936691  0.35858805  0.85213594    -0.16800
C1848       C  0.67642679  0.31456728  0.80692421    -0.16800
C1849       C  0.62921265  0.30864848  0.82393154    -0.16300
C1850       C  0.67287686  0.35810166  0.81537530    -0.16600
C1851       C  0.83335811  0.16398451  0.86806269     0.46100
H1852       H  0.83585956  0.16297643  0.89840828    -0.03000
C1853       C  0.82798201  0.16696277  0.79727107     0.46100
H1854       H  0.82601078  0.16810717  0.76688493    -0.03000
C1855       C  0.81823328  0.13367144  0.84924595    -0.16600
C1856       C  0.81490080  0.17775208  0.85603897    -0.16400
C1857       C  0.86283467  0.18220996  0.84873882    -0.16800
C1858       C  0.81537581  0.13531166  0.81186774    -0.16800
C1859       C  0.81220533  0.17960095  0.81865388    -0.16300
C1860       C  0.85980097  0.18393404  0.81150326    -0.16600
O1861       O  0.97341707  0.21998638  0.95943154    -0.71200
O1862       O  0.52150892  0.24231441  0.71178046    -0.71400
O1863       O  0.96398415  0.21466367  0.69827772    -0.71200
O1864       O  0.53119616  0.24724291  0.97329645    -0.71200
O1865       O  0.53247268  0.28932773  0.97077510    -0.71200
O1866       O  0.96621709  0.25718633  0.69944806    -0.71200
O1867       O  0.52485205  0.28528804  0.71000269    -0.71200
O1868       O  0.97322584  0.26123915  0.95985374    -0.71400
V1869       V  0.99765809  0.23216829  0.00217466     1.35200
V1870       V  0.99892348  0.27261845  0.00149599     1.35200
C1871       C  0.96428887  0.23625662  0.94557538     0.78100
C1872       C  0.53169048  0.26775395  0.72536116     0.78100
C1873       C  0.95444581  0.23054265  0.71015919     0.78000
C1874       C  0.54342032  0.27376913  0.96223688     0.78000
O1875       O  0.73875902  0.21624839  0.70439425    -0.71200
O1876       O  0.72028890  0.24696730  0.95333459    -0.71400
O1877       O  0.74516538  0.21461025  0.96579943    -0.71200
O1878       O  0.71371278  0.24908456  0.69235973    -0.71200
O1879       O  0.75670317  0.28940700  0.69550235    -0.71200
O1880       O  0.78844926  0.25456535  0.96921731    -0.71200
O1881       O  0.76331817  0.28718365  0.95626152    -0.71200
O1882       O  0.78183638  0.25650010  0.70818007    -0.71400
V1883       V  0.73030489  0.23258299  0.99579242     1.35200
V1884       V  0.77175853  0.27120739  0.99895968     1.35200
C1885       C  0.76379173  0.23061736  0.71982848     0.78100
C1886       C  0.73868521  0.27204867  0.93998840     0.78100
C1887       C  0.77209604  0.22866261  0.95723930     0.78000
C1888       C  0.72980922  0.27504807  0.70432509     0.78000
O1889       O  0.76035249  0.46667908  0.96583098    -0.71200
O1890       O  0.78940791  0.02751875  0.70295917    -0.71400
O1891       O  0.75987400  0.46793727  0.70610691    -0.71200
O1892       O  0.78939292  0.02596739  0.96292312    -0.71200
O1893       O  0.74829456  0.02648968  0.96340136    -0.71200
O1894       O  0.71777592  0.46611640  0.70086772    -0.71200
O1895       O  0.74675307  0.02477449  0.70297050    -0.71200
O1896       O  0.71971336  0.46783970  0.96123810    -0.71400
V1897       V  0.77400628  0.99697611  0.66779067     1.35200
V1898       V  0.73399714  0.49630175  0.66553167     1.35200
C1899       C  0.73523486  0.45723903  0.95107258     0.78100
C1900       C  0.77303872  0.03657120  0.71482104     0.78100
C1901       C  0.73326005  0.45667179  0.71574730     0.78000
C1902       C  0.77388291  0.03657425  0.95111228     0.78000
C1903       C  0.82225647  0.11008110  0.76022295    -0.11700
C1904       C  0.80320016  0.11006435  0.78659161     0.05400
C1905       C  0.77410222  0.08570449  0.78939944    -0.06900
C1906       C  0.76499921  0.06144154  0.76637270    -0.07700
C1907       C  0.78438379  0.06111007  0.74076324    -0.02200
C1908       C  0.81338327  0.08554922  0.73800467     0.04600
N1909       N  0.83388691  0.08601129  0.71239532     0.67100
H1910       H  0.84463865  0.12877097  0.75799280     0.16000
H1911       H  0.74246477  0.04296126  0.76793917     0.15700
N1912       N  0.75324121  0.08593679  0.81392934     0.74800
O1913       O  0.83964673  0.10140080  0.68326841    -0.38700
O1914       O  0.84958491  0.07500860  0.72160003    -0.38600
O1915       O  0.75090111  0.10864213  0.81550842    -0.39300
O1916       O  0.73426462  0.06228860  0.82974373    -0.39400
C1917       C  0.78873605  0.10589156  0.90170202    -0.11700
C1918       C  0.80542696  0.10644561  0.87191150     0.05400
C1919       C  0.81099290  0.08292908  0.86731764    -0.06900
C1920       C  0.80057976  0.06020847  0.89390188    -0.07700
C1921       C  0.78511397  0.06075952  0.92442187    -0.02200
C1922       C  0.77885896  0.08365937  0.92821242     0.04600
N1923       N  0.76384696  0.08554266  0.95968627     0.67100
H1924       H  0.78446276  0.12379381  0.90545758     0.16000
H1925       H  0.80481890  0.04217220  0.89100198     0.15700
N1926       N  0.82770469  0.08194092  0.83719672     0.74800
O1927       O  0.77324062  0.08484263  0.99168750    -0.38700
O1928       O  0.74406251  0.09225252  0.62218458    -0.38600
O1929       O  0.85137159  0.10479846  0.82741743    -0.39300
O1930       O  0.82046591  0.05741090  0.82276066    -0.39400
C1931       C  0.90505604  0.22740975  0.87618645    -0.11700
C1932       C  0.89129470  0.19696696  0.86931366     0.05400
C1933       C  0.90382854  0.18079702  0.88418691    -0.06900
C1934       C  0.92922513  0.19496145  0.90613454    -0.07700
C1935       C  0.94197899  0.22491517  0.91532694    -0.02200
C1936       C  0.93020046  0.24156239  0.89912335     0.04600
N1937       N  0.94290121  0.27249127  0.90630753     0.67100
H1938       H  0.89571720  0.24006889  0.86453489     0.16000
H1939       H  0.93769930  0.18164087  0.91817045     0.15700
N1940       N  0.89020452  0.14956016  0.87945388     0.74800
O1941       O  0.96895976  0.29072972  0.89628508    -0.38700
O1942       O  0.92702810  0.28198105  0.91862453    -0.38600
O1943       O  0.90496211  0.13954232  0.86511791    -0.39300
O1944       O  0.86873880  0.13260372  0.89972717    -0.39400
C1945       C  0.90165701  0.18374355  0.78443449    -0.11700
C1946       C  0.88438023  0.19688465  0.78617476     0.05400
C1947       C  0.88969696  0.22060216  0.76248039    -0.06900
C1948       C  0.91302827  0.23146912  0.73811000    -0.07700
C1949       C  0.93057173  0.21853739  0.73649533    -0.02200
C1950       C  0.92496440  0.19448327  0.76002794     0.04600
N1951       N  0.94316135  0.18139919  0.76043084     0.67100
H1952       H  0.89701074  0.16506331  0.80223286     0.16000
H1953       H  0.91702954  0.24972156  0.71981472     0.15700
N1954       N  0.87177228  0.23388148  0.76255150     0.74800
O1955       O  0.97025976  0.19691009  0.76876218    -0.38700
O1956       O  0.93138955  0.15362796  0.75801878    -0.38600
O1957       O  0.88365316  0.26091763  0.77067407    -0.39300
O1958       O  0.84799673  0.22204670  0.74407881    -0.39400
C1959       C  0.77644697  0.17490954  0.77119057    -0.11700
C1960       C  0.79644444  0.19241537  0.79871196     0.05400
C1961       C  0.80341490  0.22216605  0.80264604    -0.06900
C1962       C  0.79110304  0.23379495  0.77768068    -0.07700
C1963       C  0.77254116  0.21660959  0.74885224    -0.02200
C1964       C  0.76461808  0.18664306  0.74617797     0.04600
N1965       N  0.74703988  0.16863867  0.71611810     0.67100
H1966       H  0.77137693  0.15232114  0.76756797     0.16000
H1967       H  0.79724889  0.25685653  0.77962734     0.15700
N1968       N  0.82431293  0.24153329  0.82964860     0.74800
O1969       O  0.75719698  0.17483405  0.68392977    -0.38700
O1970       O  0.72406767  0.14391878  0.72245646    -0.38600
O1971       O  0.84871969  0.24271996  0.83440672    -0.39300
O1972       O  0.82000092  0.26016062  0.84554799    -0.39400
C1973       C  0.82340456  0.21145398  0.90668280    -0.11700
C1974       C  0.80321157  0.18918298  0.88319697     0.05400
C1975       C  0.77284160  0.17881454  0.88575162    -0.06900
C1976       C  0.76327358  0.19183285  0.91055725    -0.07700
C1977       C  0.78352106  0.21505326  0.93298896    -0.02200
C1978       C  0.81389101  0.22481713  0.93118323     0.04600
N1979       N  0.83527357  0.24818715  0.95383461     0.67100
H1980       H  0.84680023  0.21914536  0.90515318     0.16000
H1981       H  0.73979381  0.18376291  0.91202634     0.15700
N1982       N  0.75127515  0.15405762  0.86511841     0.74800
O1983       O  0.83969792  0.24261886  0.98648184    -0.38700
O1984       O  0.85221502  0.27347255  0.93988528    -0.38600
O1985       O  0.74110283  0.12841872  0.87886130    -0.39300
O1986       O  0.73626199  0.15814549  0.84072397    -0.39400
C1987       C  0.58928311  0.31480227  0.79681349    -0.11700
C1988       C  0.59866009  0.29540887  0.80883989     0.05400
C1989       C  0.58136916  0.26510740  0.79977175    -0.06900
C1990       C  0.55886313  0.25640939  0.77322191    -0.07700
C1991       C  0.55210472  0.27691583  0.75734477    -0.02200
C1992       C  0.56603765  0.30589320  0.77153475     0.04600
N1993       N  0.55765441  0.32683956  0.75988421     0.67100
H1994       H  0.60100276  0.33746061  0.80593007     0.16000
H1995       H  0.54665765  0.23345279  0.76479713     0.15700
N1996       N  0.58533436  0.24285890  0.81808689     0.74800
O1997       O  0.54371667  0.33368401  0.78157811    -0.38700
O1998       O  0.56816171  0.34187758  0.73075414    -0.38600
O1999       O  0.58708735  0.24288070  0.85268208    -0.39300
O2000       O  0.57902297  0.21936959  0.80154953    -0.39400
C2001       C  0.59887203  0.31642694  0.88929211    -0.11700
C2002       C  0.61536007  0.30229543  0.89004355     0.05400
C2003       C  0.61057410  0.28123716  0.91787900    -0.06900
C2004       C  0.58726643  0.27280363  0.94205842    -0.07700
C2005       C  0.56960176  0.28577491  0.93955000    -0.02200
C2006       C  0.57615528  0.30850518  0.91371986     0.04600
N2007       N  0.55867286  0.32221806  0.91006852     0.67100
H2008       H  0.60289310  0.33306639  0.86875143     0.16000
H2009       H  0.58266660  0.25571190  0.96256311     0.15700
N2010       N  0.62739660  0.26665121  0.92037024     0.74800
O2011       O  0.56543143  0.34500350  0.92848653    -0.38700
O2012       O  0.53981031  0.31463477  0.88434497    -0.38600
O2013       O  0.65435395  0.28122176  0.92951413    -0.39300
O2014       O  0.61405539  0.23869009  0.92227652    -0.39400
C2015       C  0.72077870  0.32049808  0.77670249    -0.11700
C2016       C  0.68987844  0.30674887  0.77736686     0.05400
C2017       C  0.67264665  0.28509519  0.75106523    -0.06900
C2018       C  0.68642423  0.27570625  0.72703369    -0.07700
C2019       C  0.71711411  0.28777307  0.72824989    -0.02200
C2020       C  0.73457373  0.31096845  0.75279037     0.04600
N2021       N  0.76595603  0.32374930  0.75552971     0.67100
H2022       H  0.73422046  0.33790254  0.79602524     0.16000
H2023       H  0.67284743  0.25846683  0.70756812     0.15700
N2024       N  0.64113839  0.27109885  0.74941317     0.74800
O2025       O  0.78279009  0.35142211  0.75173545    -0.38700
O2026       O  0.77651320  0.30821625  0.76738210    -0.38600
O2027       O  0.62972383  0.28370599  0.73149932    -0.39300
O2028       O  0.62593990  0.24339392  0.75434200    -0.39400
C2029       C  0.70585481  0.26310686  0.88612317    -0.11700
C2030       C  0.73037517  0.28333764  0.90719308     0.05400
C2031       C  0.74351006  0.31393090  0.89937485    -0.06900
C2032       C  0.72906785  0.32366779  0.87536708    -0.07700
C2033       C  0.70195205  0.30351437  0.85906410    -0.02200
C2034       C  0.69150394  0.27284871  0.86189182     0.04600
N2035       N  0.66587799  0.25127519  0.84195813     0.67100
H2036       H  0.69645530  0.23946002  0.89044821     0.16000
H2037       H  0.73885493  0.34716296  0.86982568     0.15700
N2038       N  0.77039854  0.33537893  0.91701317     0.74800
O2039       O  0.66520855  0.22878059  0.82901334    -0.38700
O2040       O  0.64290366  0.25306120  0.84006165    -0.39000
O2041       O  0.79443613  0.33706763  0.90888347    -0.39300
O2042       O  0.77080593  0.35520609  0.60320842    -0.39400
C2043       C  0.71939026  0.40073586  0.79189216    -0.11700
C2044       C  0.68830047  0.38426437  0.79110769     0.05400
C2045       C  0.67278220  0.39160446  0.76528017    -0.06900
C2046       C  0.68821596  0.41552437  0.74170229    -0.07700
C2047       C  0.71916399  0.43221881  0.74242360    -0.02200
C2048       C  0.73496218  0.42464517  0.76765753     0.04600
N2049       N  0.76653474  0.44090207  0.76910874     0.67100
H2050       H  0.73160428  0.39466804  0.81095244     0.16000
H2051       H  0.67557959  0.42057333  0.72202925     0.15700
N2052       N  0.64135518  0.37519533  0.76215264     0.74800
O2053       O  0.77992914  0.46366905  0.78882345    -0.38700
O2054       O  0.78079476  0.43034992  0.75475557    -0.38600
O2055       O  0.62713331  0.38673324  0.77389655    -0.39300
O2056       O  0.62976044  0.35601645  0.73726145    -0.39400
C2057       C  0.71776844  0.38870392  0.89871688    -0.11700
C2058       C  0.69515849  0.38572353  0.87484935     0.05400
C2059       C  0.68749296  0.40799311  0.87438834    -0.06900
C2060       C  0.70180903  0.43174958  0.89856364    -0.07700
C2061       C  0.72371693  0.43400943  0.92310786    -0.02200
C2062       C  0.73253200  0.41281668  0.92207490     0.04600
N2063       N  0.75564678  0.41481650  0.94545345     0.67100
H2064       H  0.72386260  0.37193554  0.89992532     0.16000
H2065       H  0.69500972  0.44809852  0.89898393     0.15700
N2066       N  0.66410918  0.40611456  0.85155544     0.74800
O2067       O  0.74939932  0.40077702  0.97568665    -0.38700
O2068       O  0.78173082  0.42712970  0.93359752    -0.38600
O2069       O  0.63845217  0.38383161  0.85419821    -0.39300
O2070       O  0.66760015  0.42893862  0.83461853    -0.39400
C2071       C  0.66970167  0.82780459  0.20164310     0.46100
H2072       H  0.67560763  0.82852274  0.23116633    -0.03000
C2073       C  0.65607283  0.82682289  0.13246828     0.46100
H2074       H  0.65069090  0.82706198  0.10299873    -0.03000
C2075       C  0.68350788  0.81490368  0.17676358    -0.16600
C2076       C  0.63654962  0.80961602  0.19381850    -0.16400
C2077       C  0.67931507  0.85853826  0.18547147    -0.16800
C2078       C  0.67638905  0.81452680  0.14025416    -0.16800
C2079       C  0.62916906  0.80859337  0.15726197    -0.16300
C2080       C  0.67282551  0.85805277  0.14871060    -0.16600
C2081       C  0.83340751  0.66403325  0.20139450     0.46100
H2082       H  0.83590894  0.66302681  0.23174030    -0.03000
C2083       C  0.82803165  0.66700781  0.13060234     0.46100
H2084       H  0.82606075  0.66815093  0.10021599    -0.03000
C2085       C  0.81828949  0.63371971  0.18257905    -0.16600
C2086       C  0.81494377  0.67779314  0.18936827    -0.16400
C2087       C  0.86288368  0.68226407  0.18207176    -0.16800
C2088       C  0.81543206  0.63535789  0.14520049    -0.16800
C2089       C  0.81224837  0.67964006  0.15198289    -0.16300
C2090       C  0.85984998  0.68398621  0.14483591    -0.16600
O2091       O  0.97346707  0.72005156  0.29276481    -0.71200
O2092       O  0.52146377  0.74224881  0.04511265    -0.71400
O2093       O  0.96403323  0.71472760  0.03161026    -0.71200
O2094       O  0.53114966  0.74717594  0.30662760    -0.71200
O2095       O  0.53242719  0.78926126  0.30410776    -0.71200
O2096       O  0.96626676  0.75725049  0.03278380    -0.71200
O2097       O  0.52480558  0.78522183  0.04333502    -0.71200
O2098       O  0.97327399  0.76130332  0.29318875    -0.71400
V2099       V  0.99770734  0.73223266  0.33550837     1.35200
V2100       V  0.99897264  0.77268277  0.33483057     1.35200
C2101       C  0.96433759  0.73632105  0.27890975     0.78100
C2102       C  0.53164466  0.76768828  0.05869340     0.78100
C2103       C  0.95449564  0.73060655  0.04349380     0.78000
C2104       C  0.54337391  0.77370222  0.29556795     0.78000
O2105       O  0.73877343  0.71625224  0.03772447    -0.71200
O2106       O  0.72028513  0.74695630  0.28666571    -0.71400
O2107       O  0.74518053  0.71461676  0.29912945    -0.71200
O2108       O  0.71370805  0.74907092  0.02569119    -0.71200
O2109       O  0.75669074  0.78940300  0.02883147    -0.71200
O2110       O  0.78845723  0.75458125  0.30254635    -0.71200
O2111       O  0.76330715  0.78718182  0.28959048    -0.71200
O2112       O  0.78184311  0.75651360  0.04150914    -0.71400
V2113       V  0.73030998  0.73257958  0.32912315     1.35200
V2114       V  0.77175646  0.77121310  0.33228883     1.35200
C2115       C  0.76380575  0.73062869  0.05315776     0.78100
C2116       C  0.73867502  0.77203952  0.27331817     0.78100
C2117       C  0.77211097  0.72867727  0.29056856     0.78000
C2118       C  0.72979726  0.77503590  0.03765551     0.78000
O2119       O  0.76029038  0.96663046  0.29916927    -0.71200
O2120       O  0.78947058  0.52756371  0.03629340    -0.71400
O2121       O  0.75981343  0.96789291  0.03944480    -0.71200
O2122       O  0.78945704  0.52601628  0.29625694    -0.71200
O2123       O  0.74835923  0.52653958  0.29673565    -0.71200
O2124       O  0.71771423  0.96606969  0.03420539    -0.71200
O2125       O  0.74681641  0.52482093  0.03630458    -0.71200
O2126       O  0.71965028  0.96778921  0.29457531    -0.71400
V2127       V  0.77406872  0.49702283  0.00112206     1.35200
V2128       V  0.73393386  0.99625336  0.99886655     1.35200
C2129       C  0.73517238  0.95718877  0.28441128     0.78100
C2130       C  0.77310175  0.53661640  0.04815594     0.78100
C2131       C  0.73319971  0.95662713  0.04908628     0.78000
C2132       C  0.77394771  0.53662422  0.28444718     0.78000
C2133       C  0.82231595  0.61012797  0.09355657    -0.11700
C2134       C  0.80325911  0.61010945  0.11992592     0.05400
C2135       C  0.77416281  0.58574694  0.12273583    -0.06900
C2136       C  0.76506174  0.56148376  0.09971029    -0.07700
C2137       C  0.78444657  0.56115438  0.07409958    -0.02200
C2138       C  0.81344472  0.58559569  0.07133930     0.04600
N2139       N  0.83394857  0.58605979  0.04572861     0.67100
H2140       H  0.84469695  0.62881974  0.09132488     0.16000
H2141       H  0.74252820  0.54300188  0.10127801     0.15700
N2142       N  0.75330086  0.58597710  0.14726580     0.74800
O2143       O  0.83971065  0.60145360  0.01660516    -0.38700
O2144       O  0.84964450  0.57505392  0.05492940    -0.38600
O2145       O  0.75095324  0.60867834  0.14883765    -0.39300
O2146       O  0.73432928  0.56232921  0.16308553    -0.39400
C2147       C  0.78879512  0.60593909  0.23503643    -0.11700
C2148       C  0.80548709  0.60649483  0.20524616     0.05400
C2149       C  0.81105689  0.58298072  0.20065357    -0.06900
C2150       C  0.80064606  0.56026076  0.22723853    -0.07700
C2151       C  0.78517904  0.56081027  0.25775807    -0.02200
C2152       C  0.77892089  0.58370802  0.26154787     0.04600
N2153       N  0.76390783  0.58558996  0.29302153     0.67100
H2154       H  0.78451827  0.62383909  0.23879075     0.16000
H2155       H  0.80488743  0.54222595  0.22433914     0.15700
N2156       N  0.82776960  0.58199399  0.17053277     0.74800
O2157       O  0.77330128  0.58489009  0.32502295    -0.38700
O2158       O  0.74412216  0.59229802  0.95551975    -0.38600
O2159       O  0.85143487  0.60485286  0.16075230    -0.39300
O2160       O  0.82053335  0.55746425  0.15609781    -0.39400
C2161       C  0.90509832  0.72746662  0.20952557    -0.11700
C2162       C  0.89134334  0.69702503  0.20264760     0.05400
C2163       C  0.90388295  0.68085924  0.21751697    -0.06900
C2164       C  0.92927933  0.69502642  0.23946447    -0.07700
C2165       C  0.94202716  0.72497850  0.24866166    -0.02200
C2166       C  0.93024230  0.74162171  0.23246314     0.04600
N2167       N  0.94293578  0.77254861  0.23965377     0.67100
H2168       H  0.89575473  0.74012262  0.19787777     0.16000
H2169       H  0.93775803  0.68170862  0.25149669     0.15700
N2170       N  0.89026436  0.64962317  0.21278157     0.74800
O2171       O  0.96899127  0.79079395  0.22962738    -0.38700
O2172       O  0.92705854  0.78202970  0.25198154    -0.38600
O2173       O  0.90502605  0.63961061  0.19844403    -0.39300
O2174       O  0.86880063  0.63266306  0.23305540    -0.39400
C2175       C  0.90171033  0.68380390  0.11776908    -0.11700
C2176       C  0.88442973  0.69694072  0.11950854     0.05400
C2177       C  0.88974359  0.72065772  0.09581487    -0.06900
C2178       C  0.91307588  0.73152832  0.07144546    -0.07700
C2179       C  0.93062270  0.71860033  0.06983119    -0.02200
C2180       C  0.92501880  0.69454734  0.09336399     0.04600
N2181       N  0.94322027  0.68146819  0.09376857     0.67100
H2182       H  0.89706617  0.66512406  0.13556696     0.16000
H2183       H  0.91707483  0.74977990  0.05314996     0.15700
N2184       N  0.87181434  0.73393201  0.09588484     0.74800
O2185       O  0.97031914  0.69698416  0.10209528    -0.38700
O2186       O  0.93145262  0.65369700  0.09136295    -0.38600
O2187       O  0.88369105  0.76096835  0.10400447    -0.39300
O2188       O  0.84803744  0.72209179  0.07741486    -0.39400
C2189       C  0.77648701  0.67493717  0.10451735    -0.11700
C2190       C  0.79648130  0.69244692  0.13203902     0.05400
C2191       C  0.80344215  0.72219457  0.13597296    -0.06900
C2192       C  0.79112306  0.73381649  0.11100822    -0.07700
C2193       C  0.77256354  0.71662732  0.08218039    -0.02200
C2194       C  0.76465093  0.68666382  0.07950544     0.04600
N2195       N  0.74707597  0.66865629  0.04944579     0.67100
H2196       H  0.77142475  0.65235135  0.10089436     0.16000
H2197       H  0.79726123  0.75687589  0.11295500     0.15700
N2198       N  0.82433769  0.74156611  0.16297463     0.74800
O2199       O  0.75723229  0.67485483  0.01725720    -0.38700
O2200       O  0.72410920  0.64393201  0.05578447    -0.38600
O2201       O  0.84874813  0.74276058  0.16773276    -0.39300
O2202       O  0.82001901  0.76018920  0.17887344    -0.39400
C2203       C  0.82343627  0.71149265  0.24001077    -0.11700
C2204       C  0.80324795  0.68921866  0.21652464     0.05400
C2205       C  0.77287602  0.67884101  0.21907907    -0.06900
C2206       C  0.76330114  0.69185278  0.24388505    -0.07700
C2207       C  0.78354357  0.71507562  0.26631747    -0.02200
C2208       C  0.81391567  0.72484908  0.26451177     0.04600
N2209       N  0.83529321  0.74822154  0.28716453     0.67100
H2210       H  0.84683350  0.71919101  0.23848162     0.16000
H2211       H  0.73981989  0.68377562  0.24535403     0.15700
N2212       N  0.75131464  0.65408091  0.19844601     0.74800
O2213       O  0.83971873  0.74265467  0.31981192    -0.38700
O2214       O  0.85222965  0.77350876  0.27321649    -0.38600
O2215       O  0.74114526  0.62844355  0.21219260    -0.39300
O2216       O  0.73630066  0.65816366  0.17404769    -0.39400
C2217       C  0.58923413  0.81473943  0.13014687    -0.11700
C2218       C  0.59861637  0.79534950  0.14216996     0.05400
C2219       C  0.58133059  0.76504829  0.13309857    -0.06900
C2220       C  0.55882336  0.75634778  0.10654994    -0.07700
C2221       C  0.55205927  0.77685128  0.09067663    -0.02200
C2222       C  0.56598769  0.80582764  0.10486917     0.04600
N2223       N  0.55759862  0.82677035  0.09322240     0.67100
H2224       H  0.60095039  0.83739739  0.13926505     0.16000
H2225       H  0.54662186  0.73339174  0.09812254     0.15700
N2226       N  0.58530315  0.74280245  0.15140805     0.74800
O2227       O  0.54365382  0.83360584  0.11491649    -0.38700
O2228       O  0.56810629  0.84181366  0.06409592    -0.38600
O2229       O  0.58705760  0.74282150  0.18600304    -0.39300
O2230       O  0.57899689  0.71931637  0.13486635    -0.39400
C2231       C  0.59882600  0.81636548  0.22262503    -0.11700
C2232       C  0.61531452  0.80223459  0.22337335     0.05400
C2233       C  0.61052783  0.78117331  0.25120515    -0.06900
C2234       C  0.58721903  0.77273672  0.27538396    -0.07700
C2235       C  0.56955441  0.78570813  0.27287905    -0.02200
C2236       C  0.57610831  0.80844071  0.24705220     0.04600
N2237       N  0.55862565  0.82215347  0.24340375     0.67100
H2238       H  0.60284770  0.83300708  0.20208716     0.16000
H2239       H  0.58261901  0.75564342  0.29588636     0.15700
N2240       N  0.62735174  0.76658868  0.25369436     0.74800
O2241       O  0.56538712  0.84494078  0.26181936    -0.38700
O2242       O  0.53975997  0.81456824  0.21768372    -0.38600
O2243       O  0.65431192  0.78116214  0.26282440    -0.39300
O2244       O  0.61401210  0.73862790  0.25560945    -0.39400
C2245       C  0.72074718  0.82047531  0.11003008    -0.11700
C2246       C  0.68984609  0.80671577  0.11069593     0.05400
C2247       C  0.67261897  0.78505770  0.08439674    -0.06900
C2248       C  0.68640301  0.77567561  0.06036576    -0.07700
C2249       C  0.71709453  0.78775332  0.06158031    -0.02200
C2250       C  0.73454872  0.81095242  0.08611876     0.04600
N2251       N  0.76593245  0.82374382  0.08885727     0.67100
H2252       H  0.73418482  0.83788247  0.12935166     0.16000
H2253       H  0.67283013  0.75843313  0.04090175     0.15700
N2254       N  0.64110968  0.77105049  0.08274661     0.74800
O2255       O  0.78275837  0.85141801  0.08506495    -0.38700
O2256       O  0.77649853  0.80821824  0.10070799    -0.38600
O2257       O  0.62968636  0.78365336  0.06484217    -0.39300
O2258       O  0.62592001  0.74334414  0.08766753    -0.39400
C2259       C  0.70583988  0.76308476  0.21945450    -0.11700
C2260       C  0.73035855  0.78332175  0.24052201     0.05400
C2261       C  0.74348551  0.81391367  0.23270029    -0.06900
C2262       C  0.72903694  0.82364298  0.20869183    -0.07700
C2263       C  0.70192231  0.80348251  0.19239179    -0.02200
C2264       C  0.69148242  0.77281869  0.19522249     0.04600
N2265       N  0.66585831  0.75123894  0.17529135     0.67100
H2266       H  0.69644678  0.73943920  0.22378207     0.16000
H2267       H  0.73881696  0.84713623  0.20314874     0.15700
N2268       N  0.77037218  0.83536810  0.25033598     0.74800
O2269       O  0.66519433  0.72874538  0.16235223    -0.38700
O2270       O  0.64288090  0.75301933  0.17339009    -0.39000
O2271       O  0.79441304  0.83706451  0.24220472    -0.39300
O2272       O  0.77077327  0.85519178  0.93653197    -0.39400
C2273       C  0.71933612  0.90069225  0.12523021    -0.11700
C2274       C  0.68824647  0.88421731  0.12444525     0.05400
C2275       C  0.67272608  0.89155596  0.09861926    -0.06900
C2276       C  0.68815764  0.91547793  0.07504335    -0.07700
C2277       C  0.71910557  0.93217536  0.07576461    -0.02200
C2278       C  0.73490588  0.92460358  0.10099761     0.04600
N2279       N  0.76647843  0.94086449  0.10245006     0.67100
H2280       H  0.73155177  0.89462585  0.14428965     0.16000
H2281       H  0.67551982  0.92052540  0.05537086     0.15700
N2282       N  0.64129918  0.87514227  0.09549014     0.74800
O2283       O  0.77986995  0.96364287  0.12214607    -0.38700
O2284       O  0.78074173  0.93030772  0.08811736    -0.38600
O2285       O  0.62707286  0.88667510  0.10723498    -0.39300
O2286       O  0.62970793  0.85596406  0.07059778    -0.39400
C2287       C  0.71771086  0.88865323  0.23205872    -0.11700
C2288       C  0.69510231  0.88567279  0.20818765     0.05400
C2289       C  0.68743471  0.90794097  0.20772555    -0.06900
C2290       C  0.70174837  0.93169734  0.23190163    -0.07700
C2291       C  0.72365530  0.93395796  0.25644820    -0.02200
C2292       C  0.73247126  0.91276589  0.25541805     0.04600
N2293       N  0.75558393  0.91476567  0.27880090     0.67100
H2294       H  0.72380569  0.87188721  0.23326903     0.16000
H2295       H  0.69494828  0.94804547  0.23232042     0.15700
N2296       N  0.66405146  0.90606151  0.18489042     0.74800
O2297       O  0.74933366  0.90072685  0.30903464    -0.38700
O2298       O  0.78166902  0.92707832  0.26694870    -0.38600
O2299       O  0.63839662  0.88377362  0.18752316    -0.39300
O2300       O  0.66753941  0.92888673  0.16795959    -0.39400
C2301       C  0.66970167  0.82780457  0.53497641     0.46100
H2302       H  0.67560762  0.82852272  0.56449964    -0.03000
C2303       C  0.65607284  0.82682287  0.46580159     0.46100
H2304       H  0.65069091  0.82706196  0.43633204    -0.03000
C2305       C  0.68350790  0.81490370  0.51009689    -0.16600
C2306       C  0.63654962  0.80961598  0.52715180    -0.16400
C2307       C  0.67931504  0.85853824  0.51880479    -0.16800
C2308       C  0.67638907  0.81452681  0.47358747    -0.16800
C2309       C  0.62916906  0.80859332  0.49059527    -0.16300
C2310       C  0.67282549  0.85805276  0.48204392    -0.16600
C2311       C  0.83340750  0.66403323  0.53472791     0.46100
H2312       H  0.83590892  0.66302677  0.56507371    -0.03000
C2313       C  0.82803168  0.66700781  0.46393575     0.46100
H2314       H  0.82606080  0.66815095  0.43354939    -0.03000
C2315       C  0.81828949  0.63371969  0.51591244    -0.16600
C2316       C  0.81494378  0.67779313  0.52270167    -0.16400
C2317       C  0.86288368  0.68226405  0.51540519    -0.16800
C2318       C  0.81543207  0.63535788  0.47853388    -0.16800
C2319       C  0.81224839  0.67964005  0.48531628    -0.16300
C2320       C  0.85985000  0.68398620  0.47816935    -0.16600
O2321       O  0.97346708  0.72005152  0.62609821    -0.71200
O2322       O  0.52146372  0.74224865  0.37844599    -0.71400
O2323       O  0.96403317  0.71472743  0.36494362    -0.71200
O2324       O  0.53114969  0.74717591  0.63996096    -0.71200
O2325       O  0.53242723  0.78926124  0.63744113    -0.71200
O2326       O  0.96626671  0.75725032  0.36611716    -0.71200
O2327       O  0.52480552  0.78522167  0.37666836    -0.71200
O2328       O  0.97327405  0.76130331  0.62652209    -0.71400
V2329       V  0.99770738  0.73223265  0.66884174     1.35200
V2330       V  0.99897268  0.77268276  0.66816391     1.35200
C2331       C  0.96433762  0.73632102  0.61224312     0.78100
C2332       C  0.53164462  0.76768812  0.39202673     0.78100
C2333       C  0.95449559  0.73060639  0.37682717     0.78000
C2334       C  0.54337394  0.77370219  0.62890130     0.78000
O2335       O  0.73877343  0.71625219  0.37105784    -0.71200
O2336       O  0.72028519  0.74695636  0.61999902    -0.71400
O2337       O  0.74518055  0.71461680  0.63246282    -0.71200
O2338       O  0.71370803  0.74907086  0.35902456    -0.71200
O2339       O  0.75669072  0.78940294  0.36216480    -0.71200
O2340       O  0.78845726  0.75458128  0.63587968    -0.71200
O2341       O  0.76330721  0.78718188  0.62292380    -0.71200
O2342       O  0.78184311  0.75651355  0.37484248    -0.71400
V2343       V  0.73031002  0.73257965  0.66245648     1.35200
V2344       V  0.77175651  0.77121316  0.66562215     1.35200
C2345       C  0.76380576  0.73062865  0.38649112     0.78100
C2346       C  0.73867509  0.77203958  0.60665148     0.78100
C2347       C  0.77211099  0.72867729  0.62390193     0.78000
C2348       C  0.72979725  0.77503584  0.37098885     0.78000
O2349       O  0.76029031  0.96663046  0.63250255    -0.71200
O2350       O  0.78947065  0.52756374  0.36962670    -0.71400
O2351       O  0.75981340  0.96789290  0.37277812    -0.71200
O2352       O  0.78945709  0.52601632  0.62959038    -0.71200
O2353       O  0.74835926  0.52653960  0.63006908    -0.71200
O2354       O  0.71771419  0.96606965  0.36753868    -0.71200
O2355       O  0.74681648  0.52482095  0.36963793    -0.71200
O2356       O  0.71965021  0.96778920  0.62790867    -0.71400
V2357       V  0.77406876  0.49702284  0.33445538     1.35200
V2358       V  0.73393382  0.99625333  0.33219985     1.35200
C2359       C  0.73517229  0.95718875  0.61774462     0.78100
C2360       C  0.77310182  0.53661642  0.38148927     0.78100
C2361       C  0.73319967  0.95662710  0.38241959     0.78000
C2362       C  0.77394774  0.53662425  0.61778061     0.78000
C2363       C  0.82231599  0.61012799  0.42688993    -0.11700
C2364       C  0.80325914  0.61010946  0.45325929     0.05400
C2365       C  0.77416285  0.58574694  0.45606918    -0.06900
C2366       C  0.76506180  0.56148376  0.43304365    -0.07700
C2367       C  0.78444665  0.56115439  0.40743294    -0.02200
C2368       C  0.81344479  0.58559572  0.40467267     0.04600
N2369       N  0.83394865  0.58605984  0.37906198     0.67100
H2370       H  0.84469699  0.62881978  0.42465825     0.16000
H2371       H  0.74252826  0.54300187  0.43461136     0.15700
N2372       N  0.75330088  0.58597708  0.48059914     0.74800
O2373       O  0.83971110  0.60145405  0.34993883    -0.38700
O2374       O  0.84964430  0.57505361  0.38826259    -0.38600
O2375       O  0.75095328  0.60867833  0.48217103    -0.39300
O2376       O  0.73432929  0.56232918  0.49641884    -0.39400
C2377       C  0.78879508  0.60593907  0.56836979    -0.11700
C2378       C  0.80548707  0.60649481  0.53857954     0.05400
C2379       C  0.81105688  0.58298070  0.53398697    -0.06900
C2380       C  0.80064608  0.56026077  0.56057196    -0.07700
C2381       C  0.78517906  0.56081029  0.59109149    -0.02200
C2382       C  0.77892087  0.58370802  0.59488126     0.04600
N2383       N  0.76390778  0.58558995  0.62635489     0.67100
H2384       H  0.78451822  0.62383906  0.57212409     0.16000
H2385       H  0.80488746  0.54222597  0.55767259     0.15700
N2386       N  0.82776956  0.58199396  0.50386616     0.74800
O2387       O  0.77330118  0.58489004  0.65835633    -0.38700
O2388       O  0.74412222  0.59229806  0.28885312    -0.38600
O2389       O  0.85143486  0.60485281  0.49408570    -0.39300
O2390       O  0.82053327  0.55746421  0.48943117    -0.39400
C2391       C  0.90509831  0.72746658  0.54285902    -0.11700
C2392       C  0.89134334  0.69702500  0.53598104     0.05400
C2393       C  0.90388296  0.68085921  0.55085036    -0.06900
C2394       C  0.92927936  0.69502639  0.57279784    -0.07700
C2395       C  0.94202719  0.72497847  0.58199505    -0.02200
C2396       C  0.93024230  0.74162167  0.56579656     0.04600
N2397       N  0.94293577  0.77254857  0.57298721     0.67100
H2398       H  0.89575471  0.74012258  0.53121124     0.16000
H2399       H  0.93775808  0.68170860  0.58483003     0.15700
N2400       N  0.89026438  0.64962314  0.54611495     0.74800
O2401       O  0.96899127  0.79079392  0.56296085    -0.38700
O2402       O  0.92705852  0.78202965  0.58531494    -0.38600
O2403       O  0.90502607  0.63961059  0.53177742    -0.39300
O2404       O  0.86880063  0.63266302  0.56638875    -0.39400
C2405       C  0.90171026  0.68380376  0.45110244    -0.11700
C2406       C  0.88442975  0.69694068  0.45284200     0.05400
C2407       C  0.88974370  0.72065774  0.42914841    -0.06900
C2408       C  0.91307595  0.73152828  0.40477896    -0.07700
C2409       C  0.93062267  0.71860019  0.40316458    -0.02200
C2410       C  0.92501871  0.69454714  0.42669732     0.04600
N2411       N  0.94322007  0.68146789  0.42710180     0.67100
H2412       H  0.89706603  0.66512388  0.46890028     0.16000
H2413       H  0.91707495  0.74977991  0.38648352     0.15700
N2414       N  0.87181455  0.73393215  0.42921850     0.74800
O2415       O  0.97031897  0.69698377  0.43542842    -0.38700
O2416       O  0.93145231  0.65369667  0.42469627    -0.38600
O2417       O  0.88369136  0.76096848  0.43733820    -0.39300
O2418       O  0.84803762  0.72209202  0.41074857    -0.39400
C2419       C  0.77648706  0.67493716  0.43785071    -0.11700
C2420       C  0.79648132  0.69244691  0.46537240     0.05400
C2421       C  0.80344213  0.72219455  0.46930635    -0.06900
C2422       C  0.79112305  0.73381647  0.44434161    -0.07700
C2423       C  0.77256356  0.71662730  0.41551375    -0.02200
C2424       C  0.76465097  0.68666381  0.41283879     0.04600
N2425       N  0.74707605  0.66865629  0.38277912     0.67100
H2426       H  0.77142481  0.65235135  0.43422770     0.16000
H2427       H  0.79726119  0.75687585  0.44628840     0.15700
N2428       N  0.82433764  0.74156609  0.49630806     0.74800
O2429       O  0.75723246  0.67485476  0.35059056    -0.38700
O2430       O  0.72410919  0.64393208  0.38911776    -0.38600
O2431       O  0.84874810  0.74276059  0.50106620    -0.39300
O2432       O  0.82001892  0.76018914  0.51220687    -0.39400
C2433       C  0.82343628  0.71149263  0.57334417    -0.11700
C2434       C  0.80324795  0.68921865  0.54985803     0.05400
C2435       C  0.77287603  0.67884101  0.55241245    -0.06900
C2436       C  0.76330115  0.69185279  0.57721843    -0.07700
C2437       C  0.78354358  0.71507561  0.59965088    -0.02200
C2438       C  0.81391568  0.72484905  0.59784520     0.04600
N2439       N  0.83529322  0.74822147  0.62049801     0.67100
H2440       H  0.84683350  0.71919097  0.57181504     0.16000
H2441       H  0.73981991  0.68377565  0.57868739     0.15700
N2442       N  0.75131464  0.65408094  0.53177936     0.74800
O2443       O  0.83971823  0.74265466  0.65314566    -0.38700
O2444       O  0.85223008  0.77350855  0.60654990    -0.38600
O2445       O  0.74114524  0.62844357  0.54552592    -0.39300
O2446       O  0.73630069  0.65816373  0.50738103    -0.39400
C2447       C  0.58923412  0.81473933  0.46348013    -0.11700
C2448       C  0.59861638  0.79534942  0.47550324     0.05400
C2449       C  0.58133060  0.76504820  0.46643188    -0.06900
C2450       C  0.55882336  0.75634766  0.43988326    -0.07700
C2451       C  0.55205925  0.77685114  0.42400994    -0.02200
C2452       C  0.56598767  0.80582752  0.43820245     0.04600
N2453       N  0.55759858  0.82677021  0.42655566     0.67100
H2454       H  0.60095038  0.83739730  0.47259828     0.16000
H2455       H  0.54662187  0.73339162  0.43145589     0.15700
N2456       N  0.58530318  0.74280238  0.48474139     0.74800
O2457       O  0.54365381  0.83360573  0.44824976    -0.38700
O2458       O  0.56810623  0.84181350  0.39742917    -0.38600
O2459       O  0.58705765  0.74282146  0.51933639    -0.39300
O2460       O  0.57899693  0.71931629  0.46819972    -0.39400
C2461       C  0.59882595  0.81636538  0.55595829    -0.11700
C2462       C  0.61531451  0.80223454  0.55670664     0.05400
C2463       C  0.61052787  0.78117330  0.58453849    -0.06900
C2464       C  0.58721908  0.77273672  0.60871732    -0.07700
C2465       C  0.56955441  0.78570808  0.60621237    -0.02200
C2466       C  0.57610826  0.80844060  0.58038546     0.04600
N2467       N  0.55862553  0.82215328  0.57673695     0.67100
H2468       H  0.60284761  0.83300695  0.53542038     0.16000
H2469       H  0.58261910  0.75564346  0.62921976     0.15700
N2470       N  0.62735183  0.76658873  0.58702773     0.74800
O2471       O  0.56538697  0.84494064  0.59515245    -0.38700
O2472       O  0.53975980  0.81456793  0.55101696    -0.38600
O2473       O  0.65431198  0.78116222  0.59615791    -0.39300
O2474       O  0.61401222  0.73862795  0.58894276    -0.39400
C2475       C  0.72074721  0.82047529  0.44336340    -0.11700
C2476       C  0.68984612  0.80671577  0.44402923     0.05400
C2477       C  0.67261899  0.78505771  0.41773004    -0.06900
C2478       C  0.68640302  0.77567559  0.39369908    -0.07700
C2479       C  0.71709453  0.78775328  0.39491365    -0.02200
C2480       C  0.73454873  0.81095238  0.41945209     0.04600
N2481       N  0.76593246  0.82374376  0.42219062     0.67100
H2482       H  0.73418485  0.83788244  0.46268498     0.16000
H2483       H  0.67283014  0.75843311  0.37423507     0.15700
N2484       N  0.64110970  0.77105053  0.41607989     0.74800
O2485       O  0.78275840  0.85141795  0.41839838    -0.38700
O2486       O  0.77649852  0.80821814  0.43404129    -0.38600
O2487       O  0.62968641  0.78365341  0.39817538    -0.39300
O2488       O  0.62592000  0.74334418  0.42100085    -0.39400
C2489       C  0.70583996  0.76308481  0.55278779    -0.11700
C2490       C  0.73035861  0.78332181  0.57385531     0.05400
C2491       C  0.74348555  0.81391373  0.56603363    -0.06900
C2492       C  0.72903699  0.82364307  0.54202515    -0.07700
C2493       C  0.70192236  0.80348255  0.52572510    -0.02200
C2494       C  0.69148249  0.77281874  0.52855579     0.04600
N2495       N  0.66585840  0.75123897  0.50862463     0.67100
H2496       H  0.69644689  0.73943926  0.55711533     0.16000
H2497       H  0.73881694  0.84713617  0.53648209     0.15700
N2498       N  0.77037219  0.83536818  0.58366936     0.74800
O2499       O  0.66519446  0.72874545  0.49568545    -0.38700
O2500       O  0.64288096  0.75301932  0.50672343    -0.39000
O2501       O  0.79441308  0.83706466  0.57553811    -0.39300
O2502       O  0.77077342  0.85519199  0.26986474    -0.39400
C2503       C  0.71933609  0.90069226  0.45856356    -0.11700
C2504       C  0.68824644  0.88421730  0.45777858     0.05400
C2505       C  0.67272604  0.89155593  0.43195257    -0.06900
C2506       C  0.68815760  0.91547789  0.40837664    -0.07700
C2507       C  0.71910554  0.93217533  0.40909791    -0.02200
C2508       C  0.73490584  0.92460358  0.43433095     0.04600
N2509       N  0.76647840  0.94086449  0.43578340     0.67100
H2510       H  0.73155174  0.89462588  0.47762302     0.16000
H2511       H  0.67551978  0.92052534  0.38870414     0.15700
N2512       N  0.64129915  0.87514223  0.42882344     0.74800
O2513       O  0.77986990  0.96364263  0.45547983    -0.38700
O2514       O  0.78074171  0.93030790  0.42145030    -0.38600
O2515       O  0.62707282  0.88667505  0.44056829    -0.39300
O2516       O  0.62970791  0.85596403  0.40393107    -0.39400
C2517       C  0.71771084  0.88865316  0.56539205    -0.11700
C2518       C  0.69510226  0.88567277  0.54152098     0.05400
C2519       C  0.68743463  0.90794091  0.54105890    -0.06900
C2520       C  0.70174825  0.93169729  0.56523501    -0.07700
C2521       C  0.72365518  0.93395790  0.58978159    -0.02200
C2522       C  0.73247116  0.91276585  0.58875142     0.04600
N2523       N  0.75558379  0.91476560  0.61213434     0.67100
H2524       H  0.72380561  0.87188737  0.56660235     0.16000
H2525       H  0.69494815  0.94804537  0.56565380     0.15700
N2526       N  0.66405137  0.90606145  0.51822375     0.74800
O2527       O  0.74933352  0.90072748  0.64236858    -0.38700
O2528       O  0.78166875  0.92707752  0.60028187    -0.38600
O2529       O  0.63839656  0.88377349  0.52085636    -0.39300
O2530       O  0.66753928  0.92888668  0.50129302    -0.39400
C2531       C  0.66970174  0.82780464  0.86830974     0.46100
H2532       H  0.67560769  0.82852280  0.89783297    -0.03000
C2533       C  0.65607287  0.82682292  0.79913492     0.46100
H2534       H  0.65069093  0.82706200  0.76966538    -0.03000
C2535       C  0.68350796  0.81490377  0.84343021    -0.16600
C2536       C  0.63654968  0.80961605  0.86048516    -0.16400
C2537       C  0.67931510  0.85853831  0.85213810    -0.16800
C2538       C  0.67638912  0.81452687  0.80692079    -0.16800
C2539       C  0.62916911  0.80859337  0.82392863    -0.16300
C2540       C  0.67282553  0.85805281  0.81537723    -0.16600
C2541       C  0.83340753  0.66403329  0.86806123     0.46100
H2542       H  0.83590895  0.66302686  0.89840703    -0.03000
C2543       C  0.82803167  0.66700782  0.79726907     0.46100
H2544       H  0.82606077  0.66815093  0.76688271    -0.03000
C2545       C  0.81828951  0.63371974  0.84924579    -0.16600
C2546       C  0.81494379  0.67779318  0.85603498    -0.16400
C2547       C  0.86288370  0.68226411  0.84873850    -0.16800
C2548       C  0.81543208  0.63535791  0.81186723    -0.16800
C2549       C  0.81224839  0.67964008  0.81864960    -0.16300
C2550       C  0.85985000  0.68398623  0.81150264    -0.16600
O2551       O  0.97346715  0.72005172  0.95943147    -0.71200
O2552       O  0.52146378  0.74224866  0.71177936    -0.71400
O2553       O  0.96403323  0.71472744  0.69827703    -0.71200
O2554       O  0.53114972  0.74717609  0.97329427    -0.71200
O2555       O  0.53242726  0.78926142  0.97077441    -0.71200
O2556       O  0.96626674  0.75725032  0.69945048    -0.71200
O2557       O  0.52480556  0.78522166  0.71000173    -0.71200
O2558       O  0.97327406  0.76130348  0.95985539    -0.71400
V2559       V  0.99770741  0.73223283  0.00217502     1.35200
V2560       V  0.99897270  0.77268293  0.00149721     1.35200
C2561       C  0.96433766  0.73632120  0.94557640     0.78100
C2562       C  0.53164467  0.76768813  0.72536010     0.78100
C2563       C  0.95449562  0.73060639  0.71016052     0.78000
C2564       C  0.54337398  0.77370237  0.96223460     0.78000
O2565       O  0.73877345  0.71625227  0.70439120    -0.71200
O2566       O  0.72028518  0.74695640  0.95333235    -0.71400
O2567       O  0.74518055  0.71461685  0.96579609    -0.71200
O2568       O  0.71370809  0.74907096  0.69235785    -0.71200
O2569       O  0.75669079  0.78940302  0.69549811    -0.71200
O2570       O  0.78845725  0.75458133  0.96921301    -0.71200
O2571       O  0.76330720  0.78718191  0.95625716    -0.71200
O2572       O  0.78184316  0.75651361  0.70817580    -0.71400
V2573       V  0.73031000  0.73257966  0.99578978     1.35200
V2574       V  0.77175648  0.77121317  0.99895550     1.35200
C2575       C  0.76380579  0.73062872  0.71982446     0.78100
C2576       C  0.73867508  0.77203962  0.93998482     0.78100
C2577       C  0.77211100  0.72867735  0.95723521     0.78000
C2578       C  0.72979731  0.77503594  0.70432214     0.78000
O2579       O  0.76029038  0.96663047  0.96583595    -0.71200
O2580       O  0.78947066  0.52756372  0.70296014    -0.71400
O2581       O  0.75981339  0.96789293  0.70611140    -0.71200
O2582       O  0.78945703  0.52601628  0.96292364    -0.71200
O2583       O  0.74835921  0.52653958  0.96340230    -0.71200
O2584       O  0.71771420  0.96606973  0.70087204    -0.71200
O2585       O  0.74681648  0.52482092  0.70297136    -0.71200
O2586       O  0.71965029  0.96778923  0.96124202    -0.71400
V2587       V  0.77406880  0.49702285  0.66778879     1.35200
V2588       V  0.73393381  0.99625337  0.66553316     1.35200
C2589       C  0.73517237  0.95718878  0.95107799     0.78100
C2590       C  0.77310182  0.53661639  0.71482271     0.78100
C2591       C  0.73319968  0.95662717  0.71575293     0.78000
C2592       C  0.77394770  0.53662422  0.95111386     0.78000
C2593       C  0.82231598  0.61012800  0.76022330    -0.11700
C2594       C  0.80325914  0.61010946  0.78659267     0.05400
C2595       C  0.77416286  0.58574693  0.78940260    -0.06900
C2596       C  0.76506181  0.56148374  0.76637709    -0.07700
C2597       C  0.78444665  0.56115437  0.74076636    -0.02200
C2598       C  0.81344478  0.58559572  0.73800606     0.04600
N2599       N  0.83394863  0.58605983  0.71239535     0.67100
H2600       H  0.84469697  0.62881979  0.75799159     0.16000
H2601       H  0.74252827  0.54300184  0.76794482     0.15700
N2602       N  0.75330090  0.58597708  0.81393257     0.74800
O2603       O  0.83971105  0.60145404  0.68327219    -0.38700
O2604       O  0.84964430  0.57505364  0.72159595    -0.38600
O2605       O  0.75095327  0.60867832  0.81550444    -0.39300
O2606       O  0.73432933  0.56232918  0.82975229    -0.39400
C2607       C  0.78879513  0.60593912  0.90170316    -0.11700
C2608       C  0.80548713  0.60649487  0.87191291     0.05400
C2609       C  0.81105695  0.58298077  0.86732032    -0.06900
C2610       C  0.80064611  0.56026081  0.89390527    -0.07700
C2611       C  0.78517905  0.56081029  0.92442478    -0.02200
C2612       C  0.77892089  0.58370803  0.92821458     0.04600
N2613       N  0.76390778  0.58558994  0.95968820     0.67100
H2614       H  0.78451827  0.62383911  0.90545747     0.16000
H2615       H  0.80488750  0.54222601  0.89100589     0.15700
N2616       N  0.82776969  0.58199407  0.83719954     0.74800
O2617       O  0.77330118  0.58489005  0.99168964    -0.38700
O2618       O  0.74412220  0.59229808  0.62218644    -0.38600
O2619       O  0.85143494  0.60485296  0.82741908    -0.39300
O2620       O  0.82053347  0.55746434  0.82276458    -0.39400
C2621       C  0.90509833  0.72746668  0.87619226    -0.11700
C2622       C  0.89134336  0.69702509  0.86931433     0.05400
C2623       C  0.90388299  0.68085932  0.88418371    -0.06900
C2624       C  0.92927939  0.69502654  0.90613117    -0.07700
C2625       C  0.94202722  0.72497862  0.91532833    -0.02200
C2626       C  0.93024232  0.74162181  0.89912981     0.04600
N2627       N  0.94293579  0.77254871  0.90632041     0.67100
H2628       H  0.89575473  0.74012267  0.86454445     0.16000
H2629       H  0.93775811  0.68170876  0.91816339     0.15700
N2630       N  0.89026440  0.64962325  0.87944837     0.74800
O2631       O  0.96899128  0.79079406  0.89629404    -0.38700
O2632       O  0.92705853  0.78202979  0.91864814    -0.38600
O2633       O  0.90502610  0.63961067  0.86511092    -0.39300
O2634       O  0.86880065  0.63266316  0.89972218    -0.39400
C2635       C  0.90171033  0.68380385  0.78443585    -0.11700
C2636       C  0.88442974  0.69694069  0.78617527     0.05400
C2637       C  0.88974360  0.72065765  0.76248153    -0.06900
C2638       C  0.91307587  0.73152819  0.73811211    -0.07700
C2639       C  0.93062268  0.71860020  0.73649790    -0.02200
C2640       C  0.92501879  0.69454724  0.76003076     0.04600
N2641       N  0.94322023  0.68146808  0.76043537     0.67100
H2642       H  0.89706616  0.66512404  0.80223378     0.16000
H2643       H  0.91707482  0.74977975  0.71981656     0.15700
N2644       N  0.87181436  0.73393196  0.76255145     0.74800
O2645       O  0.97031911  0.69698403  0.76876207    -0.38700
O2646       O  0.93145257  0.65369687  0.75802982    -0.38600
O2647       O  0.88369107  0.76096830  0.77067105    -0.39300
O2648       O  0.84803746  0.72209173  0.74408145    -0.39400
C2649       C  0.77648702  0.67493720  0.77118408    -0.11700
C2650       C  0.79648134  0.69244696  0.79870572     0.05400
C2651       C  0.80344223  0.72219463  0.80263962    -0.06900
C2652       C  0.79112314  0.73381655  0.77767489    -0.07700
C2653       C  0.77256358  0.71662736  0.74884709    -0.02200
C2654       C  0.76465093  0.68666385  0.74617217     0.04600
N2655       N  0.74707594  0.66865631  0.71611256     0.67100
H2656       H  0.77142473  0.65235137  0.76756111     0.16000
H2657       H  0.79726134  0.75687595  0.77962164     0.15700
N2658       N  0.82433780  0.74156617  0.82964126     0.74800
O2659       O  0.75723228  0.67485472  0.68392398    -0.38700
O2660       O  0.72410906  0.64393213  0.72245129    -0.38600
O2661       O  0.84874823  0.74276060  0.83439938    -0.39300
O2662       O  0.82001918  0.76018931  0.84554004    -0.39400
C2663       C  0.82343631  0.71149274  0.90667742    -0.11700
C2664       C  0.80324797  0.68921872  0.88319132     0.05400
C2665       C  0.77287605  0.67884106  0.88574577    -0.06900
C2666       C  0.76330117  0.69185284  0.91055174    -0.07700
C2667       C  0.78354360  0.71507570  0.93298413    -0.02200
C2668       C  0.81391571  0.72484918  0.93117841     0.04600
N2669       N  0.83529325  0.74822167  0.95383114     0.67100
H2670       H  0.84683354  0.71919111  0.90514825     0.16000
H2671       H  0.73981992  0.68377567  0.91202073     0.15700
N2672       N  0.75131466  0.65408094  0.86511273     0.74800
O2673       O  0.83971859  0.74265488  0.98647865    -0.38700
O2674       O  0.85222984  0.77350881  0.93988301    -0.38600
O2675       O  0.74114529  0.62844359  0.87885934    -0.39300
O2676       O  0.73630069  0.65816369  0.84071439    -0.39400
C2677       C  0.58923415  0.81473936  0.79681350    -0.11700
C2678       C  0.59861642  0.79534946  0.80883662     0.05400
C2679       C  0.58133066  0.76504825  0.79976526    -0.06900
C2680       C  0.55882342  0.75634770  0.77321664    -0.07700
C2681       C  0.55205930  0.77685116  0.75734331    -0.02200
C2682       C  0.56598771  0.80582755  0.77153581     0.04600
N2683       N  0.55759863  0.82677024  0.75988900     0.67100
H2684       H  0.60095041  0.83739734  0.80593164     0.16000
H2685       H  0.54662193  0.73339165  0.76478927     0.15700
N2686       N  0.58530325  0.74280243  0.81807478     0.74800
O2687       O  0.54365395  0.83360585  0.78158313    -0.38700
O2688       O  0.56810623  0.84181347  0.73076245    -0.38600
O2689       O  0.58705766  0.74282150  0.85266978    -0.39300
O2690       O  0.57899703  0.71931636  0.80153311    -0.39400
C2691       C  0.59882608  0.81636556  0.88929166    -0.11700
C2692       C  0.61531459  0.80223465  0.89004001     0.05400
C2693       C  0.61052788  0.78117339  0.91787183    -0.06900
C2694       C  0.58721909  0.77273684  0.94205065    -0.07700
C2695       C  0.56955448  0.78570826  0.93954571    -0.02200
C2696       C  0.57610838  0.80844081  0.91371882     0.04600
N2697       N  0.55862572  0.82215356  0.91007032     0.67100
H2698       H  0.60284780  0.83300716  0.86875377     0.16000
H2699       H  0.58261906  0.75564355  0.96255307     0.15700
N2700       N  0.62735177  0.76658874  0.92036107     0.74800
O2701       O  0.56538720  0.84494091  0.92848585    -0.38700
O2702       O  0.53976001  0.81456827  0.88435032    -0.38600
O2703       O  0.65431198  0.78116221  0.92949102    -0.39300
O2704       O  0.61401211  0.73862797  0.92227628    -0.39400
C2705       C  0.72074726  0.82047537  0.77669672    -0.11700
C2706       C  0.68984617  0.80671585  0.77736255     0.05400
C2707       C  0.67261905  0.78505782  0.75106332    -0.06900
C2708       C  0.68640309  0.77567572  0.72703234    -0.07700
C2709       C  0.71709460  0.78775340  0.72824692    -0.02200
C2710       C  0.73454879  0.81095248  0.75278539     0.04600
N2711       N  0.76593252  0.82374385  0.75552392     0.67100
H2712       H  0.73418490  0.83788251  0.79601832     0.16000
H2713       H  0.67283021  0.75843326  0.70756831     0.15700
N2714       N  0.64110977  0.77105065  0.74941315     0.74800
O2715       O  0.78275846  0.85141804  0.75173158    -0.38700
O2716       O  0.77649858  0.80821825  0.76737466    -0.38600
O2717       O  0.62968649  0.78365352  0.73150859    -0.39300
O2718       O  0.62592006  0.74334431  0.75433416    -0.39400
C2719       C  0.70583999  0.76308487  0.88612111    -0.11700
C2720       C  0.73035862  0.78332186  0.90718866     0.05400
C2721       C  0.74348558  0.81391378  0.89936697    -0.06900
C2722       C  0.72903703  0.82364310  0.87535848    -0.07700
C2723       C  0.70192242  0.80348262  0.85905841    -0.02200
C2724       C  0.69148254  0.77281881  0.86188909     0.04600
N2725       N  0.66585846  0.75123906  0.84195792     0.67100
H2726       H  0.69644689  0.73943931  0.89044865     0.16000
H2727       H  0.73881703  0.84713632  0.86981543     0.15700
N2728       N  0.77037220  0.83536821  0.91700274     0.74800
O2729       O  0.66519455  0.72874560  0.82901861    -0.38700
O2730       O  0.64288098  0.75301935  0.84005685    -0.39000
O2731       O  0.79441314  0.83706492  0.90887119    -0.39300
O2732       O  0.77077336  0.85519201  0.60319816    -0.39400
C2733       C  0.71933612  0.90069228  0.79189682    -0.11700
C2734       C  0.68824648  0.88421733  0.79111187     0.05400
C2735       C  0.67272607  0.89155598  0.76528589    -0.06900
C2736       C  0.68815762  0.91547797  0.74171000    -0.07700
C2737       C  0.71910556  0.93217542  0.74243128    -0.02200
C2738       C  0.73490587  0.92460364  0.76766426     0.04600
N2739       N  0.76647843  0.94086459  0.76911675     0.67100
H2740       H  0.73155178  0.89462589  0.81095626     0.16000
H2741       H  0.67551979  0.92052543  0.72203752     0.15700
N2742       N  0.64129917  0.87514227  0.76215677     0.74800
O2743       O  0.77986992  0.96364330  0.78881221    -0.38700
O2744       O  0.78074177  0.93030763  0.75478463    -0.38600
O2745       O  0.62707283  0.88667508  0.77390159    -0.39300
O2746       O  0.62970794  0.85596406  0.73726441    -0.39400
C2747       C  0.71771086  0.88865324  0.89872540    -0.11700
C2748       C  0.69510234  0.88567284  0.87485428     0.05400
C2749       C  0.68743477  0.90794103  0.87439216    -0.06900
C2750       C  0.70174840  0.93169739  0.89856829    -0.07700
C2751       C  0.72365528  0.93395796  0.92311493    -0.02200
C2752       C  0.73247121  0.91276586  0.92208480     0.04600
N2753       N  0.75558376  0.91476554  0.94546779     0.67100
H2754       H  0.72380565  0.87188725  0.89993573     0.16000
H2755       H  0.69494834  0.94804553  0.89898706     0.15700
N2756       N  0.66405156  0.90606162  0.85155698     0.74800
O2757       O  0.74933340  0.90072734  0.97570199    -0.38700
O2758       O  0.78166876  0.92707747  0.93361544    -0.38600
O2759       O  0.63839674  0.88377368  0.85418951    -0.39300
O2760       O  0.66753952  0.92888688  0.83462625    -0.39400
loop_ 
_geom_bond_atom_site_label_1 
_geom_bond_atom_site_label_2 
_geom_bond_distance 
_geom_bond_site_symmetry_2 
_ccdc_geom_bond_type 
C1            H2   1.107       .  S
C1            C7   1.529       .  S
C1            C6   1.524       .  S
C1            C5   1.535       .  S
C3            H4   1.104       .  S
C3            C9   1.537       .  S
C3            C8   1.523       .  S
C3           C10   1.534       .  S
C5            C8   1.370       .  D
C5          C193   1.475       .  S
C6            C9   1.372       .  D
C6          C162   1.463       .  S
C7           C10   1.370       .  D
C7          C218   1.487       .  S
C8          C176   1.473       .  S
C9          C148   1.485       .  S
C10         C204   1.470       .  S
C11          H12   1.112       .  S
C11          C17   1.521       .  S
C11          C16   1.529       .  S
C11          C15   1.536       .  S
C13          H14   1.111       .  S
C13          C19   1.530       .  S
C13          C18   1.526       .  S
C13          C20   1.524       .  S
C15          C18   1.370       .  D
C15          C78   1.471       .  S
C16          C19   1.370       .  D
C16         C134   1.462       .  S
C17          C20   1.367       .  D
C17          C92   1.482       .  S
C18          C64   1.473       .  S
C19         C120   1.479       .  S
C20         C106   1.451       .  S
O21          V29   1.892       .  S
O21          C31   1.266       .  A
O22        V1869   1.890   1_455  S
O22          C32   1.264       .  A
O23         V489   1.871       .  S
O23          C33   1.258       .  A
O24        V1409   1.872   1_455  S
O24          C34   1.258       .  A
O25        V1410   1.881   1_455  S
O25          C34   1.261       .  A
O26         V490   1.878       .  S
O26          C33   1.261       .  A
O27        V1870   1.892   1_455  S
O27          C32   1.262       .  A
O28          V30   1.899       .  S
O28          C31   1.263       .  A
V29        O1632   1.891       .  S
V29         O253   1.871       .  S
V29        O1404   1.872       .  S
V29          V30   2.087       .  T
V30        O1405   1.881       .  S
V30         O256   1.878       .  S
V30        O1637   1.891       .  S
C31          C95   1.484       .  S
C32         C151   1.477       .  S
C33         C109   1.451       .  S
C34         C165   1.453       .  S
O35         V503   1.887   1_554  S
O35          C45   1.261       .  A
O36          V43   1.885       .  S
O36          C46   1.263       .  A
O37          V43   1.875       .  S
O37          C47   1.260       .  A
O38         V503   1.881   1_554  S
O38          C48   1.262       .  A
O39         V504   1.889   1_554  S
O39          C48   1.262       .  A
O40          V44   1.888       .  S
O40          C47   1.261       .  A
O41          V44   1.899       .  S
O41          C46   1.264       .  A
O42         V504   1.898   1_554  S
O42          C45   1.264       .  A
V43         O265   1.887       .  S
V43         O268   1.881       .  S
V43          V44   2.088       .  T
V44         O269   1.889       .  S
V44         O272   1.898       .  S
C45         C123   1.469       .  S
C46         C190   1.475       .  S
C47         C137   1.460       .  S
C48         C179   1.466       .  S
O49         V977   1.890       .  S
O49          C59   1.262       .  A
O50          V57   1.890   1_545  S
O50          C60   1.262       .  A
O51         V747   1.901       .  S
O51          C61   1.264       .  A
O52         V287   1.896   1_545  S
O52          C62   1.264       .  A
O53         V978   1.865   1_545  S
O53          C62   1.256       .  A
O54          V58   1.862   1_554  S
O54          C61   1.258       .  A
O55         V748   1.888   1_544  S
O55          C60   1.262       .  A
O56         V288   1.888       .  S
O56          C59   1.263       .  A
V57        O1199   1.890   1_554  S
V57         O741   1.901       .  S
V57         O512   1.896   1_564  S
V57         V748   2.088   1_554  T
V58        O1203   1.865       .  S
V58         O745   1.888   1_556  S
V58         O516   1.888       .  S
V58         V747   2.088   1_556  T
C59         C221   1.469       .  S
C60          C67   1.464       .  S
C61         C207   1.463       .  S
C62          C81   1.451       .  S
C63          C64   1.401       .  A
C63          C68   1.393       .  A
C63          H70   1.084       .  S
C64          C65   1.410       .  A
C65          C66   1.398       .  A
C65          N72   1.433       .  S
C66          C67   1.401       .  A
C66          H71   1.084       .  S
C67          C68   1.408       .  A
C68          N69   1.430       .  S
N69          O73   1.262       .  A
N69          O74   1.262       .  A
N72          O76   1.262       .  A
N72          O75   1.260       .  A
C77          C78   1.399       .  A
C77          C82   1.383       .  A
C77          H84   1.082       .  S
C78          C79   1.419       .  A
C79          C80   1.400       .  A
C79          N86   1.436       .  S
C80          C81   1.399       .  A
C80          H85   1.084       .  S
C81          C82   1.407       .  A
C82          N83   1.437       .  S
N83          O87   1.262       .  A
N83         O318   1.262       .  A
N86          O90   1.263       .  A
N86          O89   1.261       .  A
O88         N543   1.262       .  A
C91          C92   1.401       .  A
C91          C96   1.405       .  A
C91          H98   1.083       .  S
C92          C93   1.408       .  A
C93          C94   1.393       .  A
C93         N100   1.426       .  S
C94          C95   1.402       .  A
C94          H99   1.084       .  S
C95          C96   1.417       .  A
C96          N97   1.431       .  S
N97         O101   1.262       .  A
N97         O102   1.262       .  A
N100        O104   1.261       .  A
N100        O103   1.262       .  A
C105        C106   1.395       .  A
C105        C110   1.388       .  A
C105        H112   1.083       .  S
C106        C107   1.406       .  A
C107        C108   1.387       .  A
C107        N114   1.429       .  S
C108        C109   1.399       .  A
C108        H113   1.084       .  S
C109        C110   1.412       .  A
C110        N111   1.434       .  S
N111        O115   1.262       .  A
N111        O116   1.262       .  A
N114        O118   1.261       .  A
N114        O117   1.262       .  A
C119        C120   1.400       .  A
C119        C124   1.391       .  A
C119        H126   1.083       .  S
C120        C121   1.418       .  A
C121        C122   1.404       .  A
C121        N128   1.436       .  S
C122        C123   1.402       .  A
C122        H127   1.084       .  S
C123        C124   1.410       .  A
C124        N125   1.433       .  S
N125        O129   1.262       .  A
N125        O130   1.262       .  A
N128        O132   1.263       .  A
N128        O131   1.261       .  A
C133        C134   1.400       .  A
C133        C138   1.392       .  A
C133        H140   1.084       .  S
C134        C135   1.404       .  A
C135        C136   1.388       .  A
C135        N142   1.427       .  S
C136        C137   1.402       .  A
C136        H141   1.084       .  S
C137        C138   1.409       .  A
C138        N139   1.429       .  S
N139        O143   1.262       .  A
N139        O144   1.262       .  A
N142        O146   1.262       .  A
N142        O145   1.261       .  A
C147        C148   1.397       .  A
C147        C152   1.395       .  A
C147        H154   1.078       .  S
C148        C149   1.412       .  A
C149        C150   1.401       .  A
C149        N156   1.434       .  S
C150        C151   1.404       .  A
C150        H155   1.083       .  S
C151        C152   1.411       .  A
C152        N153   1.430       .  S
N153        O157   1.262       .  A
N153        O158   1.262       .  A
N156        O160   1.263       .  A
N156        O159   1.259       .  A
C161        C162   1.398       .  A
C161        C166   1.382       .  A
C161        H168   1.074       .  S
C162        C163   1.409       .  A
C163        C164   1.395       .  A
C163        N170   1.435       .  S
C164        C165   1.404       .  A
C164        H169   1.084       .  S
C165        C166   1.403       .  A
C166        N167   1.430       .  S
N167        O171   1.262       .  A
N167        O172   1.262       .  A
N170        O174   1.262       .  A
N170        O173   1.261       .  A
C175        C176   1.402       .  A
C175        C180   1.395       .  A
C175        H182   1.084       .  S
C176        C177   1.409       .  A
C177        C178   1.392       .  A
C177        N184   1.430       .  S
C178        C179   1.401       .  A
C178        H183   1.084       .  S
C179        C180   1.411       .  A
C180        N181   1.432       .  S
N181        O185   1.262       .  A
N181        O186   1.262       .  A
N184        O188   1.261       .  A
N184        O187   1.262       .  A
C189        C190   1.405       .  A
C189        C194   1.398       .  A
C189        H196   1.084       .  S
C190        C191   1.410       .  A
C191        C192   1.396       .  A
C191        N198   1.430       .  S
C192        C193   1.398       .  A
C192        H197   1.081       .  S
C193        C194   1.411       .  A
C194        N195   1.435       .  S
N195        O199   1.262       .  A
N195        O200   1.259       .  A
N198        O432   1.262       .  A
N198        O201   1.262       .  A
O202        N658   1.262       .  A
C203        C204   1.406       .  A
C203        C208   1.398       .  A
C203        H210   1.084       .  S
C204        C205   1.404       .  A
C205        C206   1.382       .  A
C205        N212   1.425       .  S
C206        C207   1.400       .  A
C206        H211   1.084       .  S
C207        C208   1.407       .  A
C208        N209   1.428       .  S
N209        O213   1.262       .  A
N209        O214   1.262       .  A
N212        O216   1.262       .  A
N212        O215   1.262       .  A
C217        C218   1.402       .  A
C217        C222   1.392       .  A
C217        H224   1.078       .  S
C218        C219   1.416       .  A
C219        C220   1.397       .  A
C219        N226   1.432       .  S
C220        C221   1.400       .  A
C220        H225   1.084       .  S
C221        C222   1.407       .  A
C222        N223   1.429       .  S
N223        O227   1.262       .  A
N223        O228   1.262       .  A
N226        O230   1.262       .  A
N226        O229   1.259       .  A
C231        H232   1.107       .  S
C231        C237   1.529       .  S
C231        C236   1.524       .  S
C231        C235   1.535       .  S
C233        H234   1.104       .  S
C233        C239   1.537       .  S
C233        C238   1.523       .  S
C233        C240   1.534       .  S
C235        C238   1.370       .  D
C235        C423   1.475       .  S
C236        C239   1.372       .  D
C236        C392   1.463       .  S
C237        C240   1.370       .  D
C237        C448   1.487       .  S
C238        C406   1.473       .  S
C239        C378   1.485       .  S
C240        C434   1.470       .  S
C241        H242   1.112       .  S
C241        C247   1.521       .  S
C241        C246   1.529       .  S
C241        C245   1.536       .  S
C243        H244   1.111       .  S
C243        C249   1.530       .  S
C243        C248   1.526       .  S
C243        C250   1.524       .  S
C245        C248   1.370       .  D
C245        C308   1.471       .  S
C246        C249   1.370       .  D
C246        C364   1.462       .  S
C247        C250   1.367       .  D
C247        C322   1.482       .  S
C248        C294   1.473       .  S
C249        C350   1.479       .  S
C250        C336   1.451       .  S
O251        V259   1.892       .  S
O251        C261   1.266       .  A
O252       V1409   1.890   1_455  S
O252        C262   1.264       .  A
O253        C263   1.258       .  A
O254       V1639   1.872   1_455  S
O254        C264   1.258       .  A
O255       V1640   1.881   1_455  S
O255        C264   1.261       .  A
O256        C263   1.261       .  A
O257       V1410   1.892   1_455  S
O257        C262   1.262       .  A
O258        V260   1.899       .  S
O258        C261   1.263       .  A
V259       O1862   1.891       .  S
V259        O483   1.871       .  S
V259       O1634   1.872       .  S
V259        V260   2.087       .  T
V260       O1635   1.881       .  S
V260        O486   1.878       .  S
V260       O1867   1.891       .  S
C261        C325   1.484       .  S
C262        C381   1.477       .  S
C263        C339   1.451       .  S
C264        C395   1.453       .  S
O265        C275   1.261       .  A
O266        V273   1.885       .  S
O266        C276   1.263       .  A
O267        V273   1.875       .  S
O267        C277   1.260       .  A
O268        C278   1.262       .  A
O269        C278   1.262       .  A
O270        V274   1.888       .  S
O270        C277   1.261       .  A
O271        V274   1.899       .  S
O271        C276   1.264       .  A
O272        C275   1.264       .  A
V273        O495   1.887       .  S
V273        O498   1.881       .  S
V273        V274   2.088       .  T
V274        O499   1.889       .  S
V274        O502   1.898       .  S
C275        C353   1.469       .  S
C276        C420   1.475       .  S
C277        C367   1.460       .  S
C278        C409   1.466       .  S
O279       V1207   1.890       .  S
O279        C289   1.262       .  A
O280        V287   1.890   1_545  S
O280        C290   1.262       .  A
O281        V977   1.901       .  S
O281        C291   1.264       .  A
O282        V517   1.896   1_545  S
O282        C292   1.264       .  A
O283       V1208   1.865   1_545  S
O283        C292   1.256       .  A
O284        V288   1.862       .  S
O284        C291   1.258       .  A
O285        V978   1.888   1_545  S
O285        C290   1.262       .  A
O286        V518   1.888       .  S
O286        C289   1.263       .  A
V287        O739   1.890       .  S
V287        O971   1.901       .  S
V287        V978   2.088       .  T
V288        O743   1.865       .  S
V288        O975   1.888       .  S
V288        V977   2.088       .  T
C289        C451   1.469       .  S
C290        C297   1.464       .  S
C291        C437   1.463       .  S
C292        C311   1.451       .  S
C293        C294   1.401       .  A
C293        C298   1.393       .  A
C293        H300   1.084       .  S
C294        C295   1.410       .  A
C295        C296   1.398       .  A
C295        N302   1.433       .  S
C296        C297   1.401       .  A
C296        H301   1.084       .  S
C297        C298   1.408       .  A
C298        N299   1.430       .  S
N299        O303   1.262       .  A
N299        O304   1.262       .  A
N302        O306   1.262       .  A
N302        O305   1.260       .  A
C307        C308   1.399       .  A
C307        C312   1.383       .  A
C307        H314   1.082       .  S
C308        C309   1.419       .  A
C309        C310   1.400       .  A
C309        N316   1.436       .  S
C310        C311   1.399       .  A
C310        H315   1.084       .  S
C311        C312   1.407       .  A
C312        N313   1.437       .  S
N313        O317   1.262       .  A
N313        O548   1.262       .  A
N316        O320   1.263       .  A
N316        O319   1.261       .  A
C321        C322   1.401       .  A
C321        C326   1.405       .  A
C321        H328   1.083       .  S
C322        C323   1.408       .  A
C323        C324   1.393       .  A
C323        N330   1.426       .  S
C324        C325   1.402       .  A
C324        H329   1.084       .  S
C325        C326   1.417       .  A
C326        N327   1.431       .  S
N327        O331   1.262       .  A
N327        O332   1.262       .  A
N330        O334   1.261       .  A
N330        O333   1.262       .  A
C335        C336   1.395       .  A
C335        C340   1.388       .  A
C335        H342   1.083       .  S
C336        C337   1.406       .  A
C337        C338   1.387       .  A
C337        N344   1.429       .  S
C338        C339   1.399       .  A
C338        H343   1.084       .  S
C339        C340   1.412       .  A
C340        N341   1.434       .  S
N341        O345   1.262       .  A
N341        O346   1.262       .  A
N344        O348   1.261       .  A
N344        O347   1.262       .  A
C349        C350   1.400       .  A
C349        C354   1.391       .  A
C349        H356   1.083       .  S
C350        C351   1.418       .  A
C351        C352   1.404       .  A
C351        N358   1.436       .  S
C352        C353   1.402       .  A
C352        H357   1.084       .  S
C353        C354   1.410       .  A
C354        N355   1.433       .  S
N355        O359   1.262       .  A
N355        O360   1.262       .  A
N358        O362   1.263       .  A
N358        O361   1.261       .  A
C363        C364   1.400       .  A
C363        C368   1.392       .  A
C363        H370   1.084       .  S
C364        C365   1.404       .  A
C365        C366   1.388       .  A
C365        N372   1.427       .  S
C366        C367   1.402       .  A
C366        H371   1.084       .  S
C367        C368   1.409       .  A
C368        N369   1.429       .  S
N369        O373   1.262       .  A
N369        O374   1.262       .  A
N372        O376   1.262       .  A
N372        O375   1.261       .  A
C377        C378   1.397       .  A
C377        C382   1.395       .  A
C377        H384   1.078       .  S
C378        C379   1.412       .  A
C379        C380   1.401       .  A
C379        N386   1.434       .  S
C380        C381   1.404       .  A
C380        H385   1.083       .  S
C381        C382   1.411       .  A
C382        N383   1.430       .  S
N383        O387   1.262       .  A
N383        O388   1.262       .  A
N386        O390   1.263       .  A
N386        O389   1.259       .  A
C391        C392   1.398       .  A
C391        C396   1.382       .  A
C391        H398   1.074       .  S
C392        C393   1.409       .  A
C393        C394   1.395       .  A
C393        N400   1.435       .  S
C394        C395   1.404       .  A
C394        H399   1.084       .  S
C395        C396   1.403       .  A
C396        N397   1.430       .  S
N397        O401   1.262       .  A
N397        O402   1.262       .  A
N400        O404   1.262       .  A
N400        O403   1.261       .  A
C405        C406   1.402       .  A
C405        C410   1.395       .  A
C405        H412   1.084       .  S
C406        C407   1.409       .  A
C407        C408   1.392       .  A
C407        N414   1.430       .  S
C408        C409   1.401       .  A
C408        H413   1.084       .  S
C409        C410   1.411       .  A
C410        N411   1.432       .  S
N411        O415   1.262       .  A
N411        O416   1.262       .  A
N414        O418   1.261       .  A
N414        O417   1.262       .  A
C419        C420   1.405       .  A
C419        C424   1.398       .  A
C419        H426   1.084       .  S
C420        C421   1.410       .  A
C421        C422   1.396       .  A
C421        N428   1.430       .  S
C422        C423   1.398       .  A
C422        H427   1.081       .  S
C423        C424   1.411       .  A
C424        N425   1.435       .  S
N425        O429   1.262       .  A
N425        O430   1.259       .  A
N428        O662   1.262       .  A
N428        O431   1.262       .  A
C433        C434   1.406       .  A
C433        C438   1.398       .  A
C433        H440   1.084       .  S
C434        C435   1.404       .  A
C435        C436   1.382       .  A
C435        N442   1.425       .  S
C436        C437   1.400       .  A
C436        H441   1.084       .  S
C437        C438   1.407       .  A
C438        N439   1.428       .  S
N439        O443   1.262       .  A
N439        O444   1.262       .  A
N442        O446   1.262       .  A
N442        O445   1.262       .  A
C447        C448   1.402       .  A
C447        C452   1.392       .  A
C447        H454   1.078       .  S
C448        C449   1.416       .  A
C449        C450   1.397       .  A
C449        N456   1.432       .  S
C450        C451   1.400       .  A
C450        H455   1.084       .  S
C451        C452   1.407       .  A
C452        N453   1.429       .  S
N453        O457   1.262       .  A
N453        O458   1.262       .  A
N456        O460   1.262       .  A
N456        O459   1.259       .  A
C461        H462   1.107       .  S
C461        C467   1.529       .  S
C461        C466   1.524       .  S
C461        C465   1.535       .  S
C463        H464   1.104       .  S
C463        C469   1.537       .  S
C463        C468   1.523       .  S
C463        C470   1.534       .  S
C465        C468   1.370       .  D
C465        C653   1.475       .  S
C466        C469   1.372       .  D
C466        C622   1.463       .  S
C467        C470   1.370       .  D
C467        C678   1.487       .  S
C468        C636   1.473       .  S
C469        C608   1.485       .  S
C470        C664   1.470       .  S
C471        H472   1.112       .  S
C471        C477   1.521       .  S
C471        C476   1.529       .  S
C471        C475   1.536       .  S
C473        H474   1.111       .  S
C473        C479   1.530       .  S
C473        C478   1.526       .  S
C473        C480   1.524       .  S
C475        C478   1.370       .  D
C475        C538   1.471       .  S
C476        C479   1.370       .  D
C476        C594   1.462       .  S
C477        C480   1.367       .  D
C477        C552   1.482       .  S
C478        C524   1.473       .  S
C479        C580   1.479       .  S
C480        C566   1.451       .  S
O481        V489   1.892   1_556  S
O481        C491   1.266       .  A
O482       V1639   1.890   1_455  S
O482        C492   1.264       .  A
O483        C493   1.258       .  A
O484       V1869   1.872   1_456  S
O484        C494   1.258       .  A
O485       V1870   1.881   1_456  S
O485        C494   1.261       .  A
O486        C493   1.261       .  A
O487       V1640   1.892   1_455  S
O487        C492   1.262       .  A
O488        V490   1.899   1_556  S
O488        C491   1.263       .  A
V489       O1402   1.891       .  S
V489       O1864   1.872   1_554  S
V489        V490   2.087       .  T
V490       O1865   1.881   1_554  S
V490       O1407   1.891       .  S
C491        C555   1.484       .  S
C492        C611   1.477       .  S
C493        C569   1.451       .  S
C494        C625   1.453       .  S
O495        C505   1.261       .  A
O496        V503   1.885       .  S
O496        C506   1.263       .  A
O497        V503   1.875       .  S
O497        C507   1.260       .  A
O498        C508   1.262       .  A
O499        C508   1.262       .  A
O500        V504   1.888       .  S
O500        C507   1.261       .  A
O501        V504   1.899       .  S
O501        C506   1.264       .  A
O502        C505   1.264       .  A
V503        V504   2.088       .  T
C505        C583   1.469       .  S
C506        C650   1.475       .  S
C507        C597   1.460       .  S
C508        C639   1.466       .  S
O509        V747   1.890   1_556  S
O509        C519   1.262       .  A
O510        V517   1.890   1_545  S
O510        C520   1.262       .  A
O511       V1207   1.901       .  S
O511        C521   1.264       .  A
O512        C522   1.264       .  A
O513        V748   1.865   1_545  S
O513        C522   1.256       .  A
O514        V518   1.862       .  S
O514        C521   1.258       .  A
O515       V1208   1.888   1_545  S
O515        C520   1.262       .  A
O516        C519   1.263       .  A
V517        O969   1.890       .  S
V517       O1201   1.901       .  S
V517       V1208   2.088       .  T
V518        O973   1.865       .  S
V518       O1205   1.888       .  S
V518       V1207   2.088       .  T
C519        C681   1.469       .  S
C520        C527   1.464       .  S
C521        C667   1.463       .  S
C522        C541   1.451       .  S
C523        C524   1.401       .  A
C523        C528   1.393       .  A
C523        H530   1.084       .  S
C524        C525   1.410       .  A
C525        C526   1.398       .  A
C525        N532   1.433       .  S
C526        C527   1.401       .  A
C526        H531   1.084       .  S
C527        C528   1.408       .  A
C528        N529   1.430       .  S
N529        O533   1.262       .  A
N529        O534   1.262       .  A
N532        O536   1.262       .  A
N532        O535   1.260       .  A
C537        C538   1.399       .  A
C537        C542   1.383       .  A
C537        H544   1.082       .  S
C538        C539   1.419       .  A
C539        C540   1.400       .  A
C539        N546   1.436       .  S
C540        C541   1.399       .  A
C540        H545   1.084       .  S
C541        C542   1.407       .  A
C542        N543   1.437       .  S
N543        O547   1.262       .  A
N546        O550   1.263       .  A
N546        O549   1.261       .  A
C551        C552   1.401       .  A
C551        C556   1.405       .  A
C551        H558   1.083       .  S
C552        C553   1.408       .  A
C553        C554   1.393       .  A
C553        N560   1.426       .  S
C554        C555   1.402       .  A
C554        H559   1.084       .  S
C555        C556   1.417       .  A
C556        N557   1.431       .  S
N557        O561   1.262       .  A
N557        O562   1.262       .  A
N560        O564   1.261       .  A
N560        O563   1.262       .  A
C565        C566   1.395       .  A
C565        C570   1.388       .  A
C565        H572   1.083       .  S
C566        C567   1.406       .  A
C567        C568   1.387       .  A
C567        N574   1.429       .  S
C568        C569   1.399       .  A
C568        H573   1.084       .  S
C569        C570   1.412       .  A
C570        N571   1.434       .  S
N571        O575   1.262       .  A
N571        O576   1.262       .  A
N574        O578   1.261       .  A
N574        O577   1.262       .  A
C579        C580   1.400       .  A
C579        C584   1.391       .  A
C579        H586   1.083       .  S
C580        C581   1.418       .  A
C581        C582   1.404       .  A
C581        N588   1.436       .  S
C582        C583   1.402       .  A
C582        H587   1.084       .  S
C583        C584   1.410       .  A
C584        N585   1.433       .  S
N585        O589   1.262       .  A
N585        O590   1.262       .  A
N588        O592   1.263       .  A
N588        O591   1.261       .  A
C593        C594   1.400       .  A
C593        C598   1.392       .  A
C593        H600   1.084       .  S
C594        C595   1.404       .  A
C595        C596   1.388       .  A
C595        N602   1.427       .  S
C596        C597   1.402       .  A
C596        H601   1.084       .  S
C597        C598   1.409       .  A
C598        N599   1.429       .  S
N599        O603   1.262       .  A
N599        O604   1.262       .  A
N602        O606   1.262       .  A
N602        O605   1.261       .  A
C607        C608   1.397       .  A
C607        C612   1.395       .  A
C607        H614   1.078       .  S
C608        C609   1.412       .  A
C609        C610   1.401       .  A
C609        N616   1.434       .  S
C610        C611   1.404       .  A
C610        H615   1.083       .  S
C611        C612   1.411       .  A
C612        N613   1.430       .  S
N613        O617   1.262       .  A
N613        O618   1.262       .  A
N616        O620   1.263       .  A
N616        O619   1.259       .  A
C621        C622   1.398       .  A
C621        C626   1.382       .  A
C621        H628   1.074       .  S
C622        C623   1.409       .  A
C623        C624   1.395       .  A
C623        N630   1.435       .  S
C624        C625   1.404       .  A
C624        H629   1.084       .  S
C625        C626   1.403       .  A
C626        N627   1.430       .  S
N627        O631   1.262       .  A
N627        O632   1.262       .  A
N630        O634   1.262       .  A
N630        O633   1.261       .  A
C635        C636   1.402       .  A
C635        C640   1.395       .  A
C635        H642   1.084       .  S
C636        C637   1.409       .  A
C637        C638   1.392       .  A
C637        N644   1.430       .  S
C638        C639   1.401       .  A
C638        H643   1.084       .  S
C639        C640   1.411       .  A
C640        N641   1.432       .  S
N641        O645   1.262       .  A
N641        O646   1.262       .  A
N644        O648   1.261       .  A
N644        O647   1.262       .  A
C649        C650   1.405       .  A
C649        C654   1.398       .  A
C649        H656   1.084       .  S
C650        C651   1.410       .  A
C651        C652   1.396       .  A
C651        N658   1.430       .  S
C652        C653   1.398       .  A
C652        H657   1.081       .  S
C653        C654   1.411       .  A
C654        N655   1.435       .  S
N655        O659   1.262       .  A
N655        O660   1.259       .  A
N658        O661   1.262       .  A
C663        C664   1.406       .  A
C663        C668   1.398       .  A
C663        H670   1.084       .  S
C664        C665   1.404       .  A
C665        C666   1.382       .  A
C665        N672   1.425       .  S
C666        C667   1.400       .  A
C666        H671   1.084       .  S
C667        C668   1.407       .  A
C668        N669   1.428       .  S
N669        O673   1.262       .  A
N669        O674   1.262       .  A
N672        O676   1.262       .  A
N672        O675   1.262       .  A
C677        C678   1.402       .  A
C677        C682   1.392       .  A
C677        H684   1.078       .  S
C678        C679   1.416       .  A
C679        C680   1.397       .  A
C679        N686   1.432       .  S
C680        C681   1.400       .  A
C680        H685   1.084       .  S
C681        C682   1.407       .  A
C682        N683   1.429       .  S
N683        O687   1.262       .  A
N683        O688   1.262       .  A
N686        O690   1.262       .  A
N686        O689   1.259       .  A
C691        H692   1.107       .  S
C691        C697   1.529       .  S
C691        C696   1.524       .  S
C691        C695   1.535       .  S
C693        H694   1.104       .  S
C693        C699   1.537       .  S
C693        C698   1.523       .  S
C693        C700   1.534       .  S
C695        C698   1.370       .  D
C695        C883   1.475       .  S
C696        C699   1.372       .  D
C696        C852   1.463       .  S
C697        C700   1.370       .  D
C697        C908   1.487       .  S
C698        C866   1.473       .  S
C699        C838   1.485       .  S
C700        C894   1.470       .  S
C701        H702   1.112       .  S
C701        C707   1.521       .  S
C701        C706   1.529       .  S
C701        C705   1.536       .  S
C703        H704   1.111       .  S
C703        C709   1.530       .  S
C703        C708   1.526       .  S
C703        C710   1.524       .  S
C705        C708   1.370       .  D
C705        C768   1.471       .  S
C706        C709   1.370       .  D
C706        C824   1.462       .  S
C707        C710   1.367       .  D
C707        C782   1.482       .  S
C708        C754   1.472       .  S
C709        C810   1.479       .  S
C710        C796   1.451       .  S
O711        V719   1.892       .  S
O711        C721   1.266       .  A
O712       V2559   1.890   1_455  S
O712        C722   1.264       .  A
O713       V1179   1.871       .  S
O713        C723   1.258       .  A
O714       V2099   1.872   1_455  S
O714        C724   1.258       .  A
O715       V2100   1.881   1_455  S
O715        C724   1.261       .  A
O716       V1180   1.878       .  S
O716        C723   1.261       .  A
O717       V2560   1.892   1_455  S
O717        C722   1.262       .  A
O718        V720   1.899       .  S
O718        C721   1.263       .  A
V719       O2322   1.891       .  S
V719        O943   1.871       .  S
V719       O2094   1.872       .  S
V719        V720   2.087       .  T
V720       O2095   1.881       .  S
V720        O946   1.878       .  S
V720       O2327   1.891       .  S
C721        C785   1.484       .  S
C722        C841   1.477       .  S
C723        C799   1.451       .  S
C724        C855   1.453       .  S
O725       V1193   1.887   1_554  S
O725        C735   1.261       .  A
O726        V733   1.885       .  S
O726        C736   1.263       .  A
O727        V733   1.875       .  S
O727        C737   1.260       .  A
O728       V1193   1.881   1_554  S
O728        C738   1.262       .  A
O729       V1194   1.889   1_554  S
O729        C738   1.262       .  A
O730        V734   1.888       .  S
O730        C737   1.261       .  A
O731        V734   1.899       .  S
O731        C736   1.264       .  A
O732       V1194   1.898   1_554  S
O732        C735   1.264       .  A
V733        O955   1.887       .  S
V733        O958   1.881       .  S
V733        V734   2.088       .  T
V734        O959   1.889       .  S
V734        O962   1.898       .  S
C735        C813   1.469       .  S
C736        C880   1.475       .  S
C737        C827   1.460       .  S
C738        C869   1.466       .  S
O739        C749   1.262       .  A
O740        V747   1.890       .  S
O740        C750   1.262       .  A
O741        C751   1.264       .  A
O742        V977   1.896       .  S
O742        C752   1.264       .  A
O743        C752   1.256       .  A
O744        V748   1.862   1_554  S
O744        C751   1.258       .  A
O745        C750   1.262       .  A
O746        V978   1.888       .  S
O746        C749   1.263       .  A
V747       O1202   1.896   1_554  S
V748       O1206   1.888       .  S
C749        C911   1.469       .  S
C750        C757   1.464       .  S
C751        C897   1.463       .  S
C752        C771   1.451       .  S
C753        C754   1.401       .  A
C753        C758   1.393       .  A
C753        H760   1.084       .  S
C754        C755   1.410       .  A
C755        C756   1.398       .  A
C755        N762   1.433       .  S
C756        C757   1.401       .  A
C756        H761   1.084       .  S
C757        C758   1.408       .  A
C758        N759   1.430       .  S
N759        O763   1.262       .  A
N759        O764   1.262       .  A
N762        O766   1.262       .  A
N762        O765   1.260       .  A
C767        C768   1.399       .  A
C767        C772   1.383       .  A
C767        H774   1.082       .  S
C768        C769   1.419       .  A
C769        C770   1.400       .  A
C769        N776   1.436       .  S
C770        C771   1.399       .  A
C770        H775   1.084       .  S
C771        C772   1.407       .  A
C772        N773   1.437       .  S
N773        O777   1.262       .  A
N773       O1008   1.262       .  A
N776        O780   1.263       .  A
N776        O779   1.261       .  A
O778       N1233   1.262       .  A
C781        C782   1.401       .  A
C781        C786   1.405       .  A
C781        H788   1.083       .  S
C782        C783   1.408       .  A
C783        C784   1.393       .  A
C783        N790   1.426       .  S
C784        C785   1.402       .  A
C784        H789   1.084       .  S
C785        C786   1.417       .  A
C786        N787   1.431       .  S
N787        O791   1.262       .  A
N787        O792   1.262       .  A
N790        O794   1.261       .  A
N790        O793   1.262       .  A
C795        C796   1.395       .  A
C795        C800   1.388       .  A
C795        H802   1.083       .  S
C796        C797   1.406       .  A
C797        C798   1.387       .  A
C797        N804   1.429       .  S
C798        C799   1.399       .  A
C798        H803   1.084       .  S
C799        C800   1.412       .  A
C800        N801   1.434       .  S
N801        O805   1.262       .  A
N801        O806   1.262       .  A
N804        O808   1.261       .  A
N804        O807   1.262       .  A
C809        C810   1.400       .  A
C809        C814   1.391       .  A
C809        H816   1.083       .  S
C810        C811   1.418       .  A
C811        C812   1.404       .  A
C811        N818   1.436       .  S
C812        C813   1.402       .  A
C812        H817   1.084       .  S
C813        C814   1.410       .  A
C814        N815   1.433       .  S
N815        O819   1.262       .  A
N815        O820   1.262       .  A
N818        O822   1.263       .  A
N818        O821   1.261       .  A
C823        C824   1.400       .  A
C823        C828   1.392       .  A
C823        H830   1.084       .  S
C824        C825   1.404       .  A
C825        C826   1.388       .  A
C825        N832   1.427       .  S
C826        C827   1.402       .  A
C826        H831   1.084       .  S
C827        C828   1.409       .  A
C828        N829   1.429       .  S
N829        O833   1.262       .  A
N829        O834   1.262       .  A
N832        O836   1.262       .  A
N832        O835   1.261       .  A
C837        C838   1.397       .  A
C837        C842   1.395       .  A
C837        H844   1.078       .  S
C838        C839   1.412       .  A
C839        C840   1.401       .  A
C839        N846   1.434       .  S
C840        C841   1.404       .  A
C840        H845   1.083       .  S
C841        C842   1.411       .  A
C842        N843   1.430       .  S
N843        O847   1.262       .  A
N843        O848   1.262       .  A
N846        O850   1.263       .  A
N846        O849   1.259       .  A
C851        C852   1.398       .  A
C851        C856   1.382       .  A
C851        H858   1.074       .  S
C852        C853   1.409       .  A
C853        C854   1.395       .  A
C853        N860   1.435       .  S
C854        C855   1.404       .  A
C854        H859   1.084       .  S
C855        C856   1.403       .  A
C856        N857   1.430       .  S
N857        O861   1.262       .  A
N857        O862   1.262       .  A
N860        O864   1.262       .  A
N860        O863   1.261       .  A
C865        C866   1.402       .  A
C865        C870   1.395       .  A
C865        H872   1.084       .  S
C866        C867   1.409       .  A
C867        C868   1.392       .  A
C867        N874   1.430       .  S
C868        C869   1.401       .  A
C868        H873   1.084       .  S
C869        C870   1.411       .  A
C870        N871   1.432       .  S
N871        O875   1.262       .  A
N871        O876   1.262       .  A
N874        O878   1.261       .  A
N874        O877   1.262       .  A
C879        C880   1.405       .  A
C879        C884   1.398       .  A
C879        H886   1.084       .  S
C880        C881   1.410       .  A
C881        C882   1.396       .  A
C881        N888   1.430       .  S
C882        C883   1.398       .  A
C882        H887   1.081       .  S
C883        C884   1.411       .  A
C884        N885   1.435       .  S
N885        O889   1.262       .  A
N885        O890   1.259       .  A
N888       O1122   1.262       .  A
N888        O891   1.262       .  A
O892       N1348   1.262       .  A
C893        C894   1.406       .  A
C893        C898   1.398       .  A
C893        H900   1.084       .  S
C894        C895   1.404       .  A
C895        C896   1.382       .  A
C895        N902   1.425       .  S
C896        C897   1.400       .  A
C896        H901   1.084       .  S
C897        C898   1.407       .  A
C898        N899   1.428       .  S
N899        O903   1.262       .  A
N899        O904   1.262       .  A
N902        O906   1.262       .  A
N902        O905   1.262       .  A
C907        C908   1.402       .  A
C907        C912   1.392       .  A
C907        H914   1.079       .  S
C908        C909   1.416       .  A
C909        C910   1.397       .  A
C909        N916   1.432       .  S
C910        C911   1.400       .  A
C910        H915   1.084       .  S
C911        C912   1.407       .  A
C912        N913   1.429       .  S
N913        O917   1.262       .  A
N913        O918   1.262       .  A
N916        O920   1.262       .  A
N916        O919   1.259       .  A
C921        H922   1.107       .  S
C921        C927   1.529       .  S
C921        C926   1.524       .  S
C921        C925   1.535       .  S
C923        H924   1.104       .  S
C923        C929   1.537       .  S
C923        C928   1.523       .  S
C923        C930   1.534       .  S
C925        C928   1.370       .  D
C925       C1113   1.475       .  S
C926        C929   1.372       .  D
C926       C1082   1.463       .  S
C927        C930   1.370       .  D
C927       C1138   1.487       .  S
C928       C1096   1.473       .  S
C929       C1068   1.485       .  S
C930       C1124   1.470       .  S
C931        H932   1.112       .  S
C931        C937   1.521       .  S
C931        C936   1.529       .  S
C931        C935   1.536       .  S
C933        H934   1.111       .  S
C933        C939   1.530       .  S
C933        C938   1.526       .  S
C933        C940   1.524       .  S
C935        C938   1.370       .  D
C935        C998   1.471       .  S
C936        C939   1.370       .  D
C936       C1054   1.462       .  S
C937        C940   1.367       .  D
C937       C1012   1.482       .  S
C938        C984   1.472       .  S
C939       C1040   1.479       .  S
C940       C1026   1.451       .  S
O941        V949   1.892       .  S
O941        C951   1.266       .  A
O942       V2099   1.890   1_455  S
O942        C952   1.264       .  A
O943        C953   1.258       .  A
O944       V2329   1.872   1_455  S
O944        C954   1.258       .  A
O945       V2330   1.881   1_455  S
O945        C954   1.261       .  A
O946        C953   1.261       .  A
O947       V2100   1.892   1_455  S
O947        C952   1.262       .  A
O948        V950   1.899       .  S
O948        C951   1.263       .  A
V949       O2552   1.891       .  S
V949       O1173   1.871       .  S
V949       O2324   1.872       .  S
V949        V950   2.087       .  T
V950       O2325   1.881       .  S
V950       O1176   1.878       .  S
V950       O2557   1.891       .  S
C951       C1015   1.484       .  S
C952       C1071   1.477       .  S
C953       C1029   1.451       .  S
C954       C1085   1.453       .  S
O955        C965   1.261       .  A
O956        V963   1.885       .  S
O956        C966   1.263       .  A
O957        V963   1.875       .  S
O957        C967   1.260       .  A
O958        C968   1.262       .  A
O959        C968   1.262       .  A
O960        V964   1.888       .  S
O960        C967   1.261       .  A
O961        V964   1.899       .  S
O961        C966   1.264       .  A
O962        C965   1.264       .  A
V963       O1185   1.887       .  S
V963       O1188   1.881       .  S
V963        V964   2.088       .  T
V964       O1189   1.889       .  S
V964       O1192   1.898       .  S
C965       C1043   1.469       .  S
C966       C1110   1.475       .  S
C967       C1057   1.460       .  S
C968       C1099   1.466       .  S
O969        C979   1.262       .  A
O970        V977   1.890       .  S
O970        C980   1.262       .  A
O971        C981   1.264       .  A
O972       V1207   1.896       .  S
O972        C982   1.264       .  A
O973        C982   1.256       .  A
O974        V978   1.862       .  S
O974        C981   1.258       .  A
O975        C980   1.262       .  A
O976       V1208   1.888       .  S
O976        C979   1.263       .  A
C979       C1141   1.469       .  S
C980        C987   1.464       .  S
C981       C1127   1.463       .  S
C982       C1001   1.451       .  S
C983        C984   1.401       .  A
C983        C988   1.393       .  A
C983        H990   1.084       .  S
C984        C985   1.410       .  A
C985        C986   1.398       .  A
C985        N992   1.433       .  S
C986        C987   1.401       .  A
C986        H991   1.084       .  S
C987        C988   1.408       .  A
C988        N989   1.430       .  S
N989        O993   1.262       .  A
N989        O994   1.262       .  A
N992        O996   1.262       .  A
N992        O995   1.260       .  A
C997        C998   1.399       .  A
C997       C1002   1.383       .  A
C997       H1004   1.082       .  S
C998        C999   1.419       .  A
C999       C1000   1.400       .  A
C999       N1006   1.436       .  S
C1000      C1001   1.399       .  A
C1000      H1005   1.084       .  S
C1001      C1002   1.407       .  A
C1002      N1003   1.437       .  S
N1003      O1007   1.262       .  A
N1003      O1238   1.262       .  A
N1006      O1010   1.263       .  A
N1006      O1009   1.261       .  A
C1011      C1012   1.401       .  A
C1011      C1016   1.405       .  A
C1011      H1018   1.083       .  S
C1012      C1013   1.408       .  A
C1013      C1014   1.393       .  A
C1013      N1020   1.426       .  S
C1014      C1015   1.402       .  A
C1014      H1019   1.084       .  S
C1015      C1016   1.417       .  A
C1016      N1017   1.431       .  S
N1017      O1021   1.262       .  A
N1017      O1022   1.262       .  A
N1020      O1024   1.261       .  A
N1020      O1023   1.262       .  A
C1025      C1026   1.395       .  A
C1025      C1030   1.388       .  A
C1025      H1032   1.083       .  S
C1026      C1027   1.406       .  A
C1027      C1028   1.387       .  A
C1027      N1034   1.429       .  S
C1028      C1029   1.399       .  A
C1028      H1033   1.084       .  S
C1029      C1030   1.412       .  A
C1030      N1031   1.434       .  S
N1031      O1035   1.262       .  A
N1031      O1036   1.262       .  A
N1034      O1038   1.261       .  A
N1034      O1037   1.262       .  A
C1039      C1040   1.400       .  A
C1039      C1044   1.391       .  A
C1039      H1046   1.083       .  S
C1040      C1041   1.418       .  A
C1041      C1042   1.404       .  A
C1041      N1048   1.436       .  S
C1042      C1043   1.402       .  A
C1042      H1047   1.084       .  S
C1043      C1044   1.410       .  A
C1044      N1045   1.433       .  S
N1045      O1049   1.262       .  A
N1045      O1050   1.262       .  A
N1048      O1052   1.263       .  A
N1048      O1051   1.261       .  A
C1053      C1054   1.400       .  A
C1053      C1058   1.392       .  A
C1053      H1060   1.084       .  S
C1054      C1055   1.404       .  A
C1055      C1056   1.388       .  A
C1055      N1062   1.427       .  S
C1056      C1057   1.402       .  A
C1056      H1061   1.084       .  S
C1057      C1058   1.409       .  A
C1058      N1059   1.429       .  S
N1059      O1063   1.262       .  A
N1059      O1064   1.262       .  A
N1062      O1066   1.262       .  A
N1062      O1065   1.261       .  A
C1067      C1068   1.397       .  A
C1067      C1072   1.395       .  A
C1067      H1074   1.078       .  S
C1068      C1069   1.412       .  A
C1069      C1070   1.401       .  A
C1069      N1076   1.434       .  S
C1070      C1071   1.404       .  A
C1070      H1075   1.083       .  S
C1071      C1072   1.411       .  A
C1072      N1073   1.430       .  S
N1073      O1077   1.262       .  A
N1073      O1078   1.262       .  A
N1076      O1080   1.263       .  A
N1076      O1079   1.259       .  A
C1081      C1082   1.398       .  A
C1081      C1086   1.382       .  A
C1081      H1088   1.074       .  S
C1082      C1083   1.409       .  A
C1083      C1084   1.395       .  A
C1083      N1090   1.435       .  S
C1084      C1085   1.404       .  A
C1084      H1089   1.084       .  S
C1085      C1086   1.403       .  A
C1086      N1087   1.430       .  S
N1087      O1091   1.262       .  A
N1087      O1092   1.262       .  A
N1090      O1094   1.262       .  A
N1090      O1093   1.261       .  A
C1095      C1096   1.402       .  A
C1095      C1100   1.395       .  A
C1095      H1102   1.084       .  S
C1096      C1097   1.409       .  A
C1097      C1098   1.392       .  A
C1097      N1104   1.430       .  S
C1098      C1099   1.401       .  A
C1098      H1103   1.084       .  S
C1099      C1100   1.411       .  A
C1100      N1101   1.432       .  S
N1101      O1105   1.262       .  A
N1101      O1106   1.262       .  A
N1104      O1108   1.261       .  A
N1104      O1107   1.262       .  A
C1109      C1110   1.405       .  A
C1109      C1114   1.398       .  A
C1109      H1116   1.084       .  S
C1110      C1111   1.410       .  A
C1111      C1112   1.396       .  A
C1111      N1118   1.430       .  S
C1112      C1113   1.398       .  A
C1112      H1117   1.081       .  S
C1113      C1114   1.411       .  A
C1114      N1115   1.435       .  S
N1115      O1119   1.262       .  A
N1115      O1120   1.259       .  A
N1118      O1352   1.262       .  A
N1118      O1121   1.262       .  A
C1123      C1124   1.406       .  A
C1123      C1128   1.398       .  A
C1123      H1130   1.084       .  S
C1124      C1125   1.404       .  A
C1125      C1126   1.382       .  A
C1125      N1132   1.425       .  S
C1126      C1127   1.400       .  A
C1126      H1131   1.084       .  S
C1127      C1128   1.407       .  A
C1128      N1129   1.428       .  S
N1129      O1133   1.262       .  A
N1129      O1134   1.262       .  A
N1132      O1136   1.262       .  A
N1132      O1135   1.262       .  A
C1137      C1138   1.402       .  A
C1137      C1142   1.392       .  A
C1137      H1144   1.079       .  S
C1138      C1139   1.416       .  A
C1139      C1140   1.397       .  A
C1139      N1146   1.432       .  S
C1140      C1141   1.400       .  A
C1140      H1145   1.084       .  S
C1141      C1142   1.407       .  A
C1142      N1143   1.429       .  S
N1143      O1147   1.262       .  A
N1143      O1148   1.262       .  A
N1146      O1150   1.262       .  A
N1146      O1149   1.259       .  A
C1151      H1152   1.107       .  S
C1151      C1157   1.529       .  S
C1151      C1156   1.524       .  S
C1151      C1155   1.535       .  S
C1153      H1154   1.104       .  S
C1153      C1159   1.537       .  S
C1153      C1158   1.523       .  S
C1153      C1160   1.534       .  S
C1155      C1158   1.370       .  D
C1155      C1343   1.475       .  S
C1156      C1159   1.372       .  D
C1156      C1312   1.463       .  S
C1157      C1160   1.370       .  D
C1157      C1368   1.487       .  S
C1158      C1326   1.473       .  S
C1159      C1298   1.485       .  S
C1160      C1354   1.470       .  S
C1161      H1162   1.112       .  S
C1161      C1167   1.521       .  S
C1161      C1166   1.529       .  S
C1161      C1165   1.536       .  S
C1163      H1164   1.111       .  S
C1163      C1169   1.530       .  S
C1163      C1168   1.526       .  S
C1163      C1170   1.524       .  S
C1165      C1168   1.370       .  D
C1165      C1228   1.471       .  S
C1166      C1169   1.370       .  D
C1166      C1284   1.462       .  S
C1167      C1170   1.367       .  D
C1167      C1242   1.482       .  S
C1168      C1214   1.472       .  S
C1169      C1270   1.479       .  S
C1170      C1256   1.451       .  S
O1171      V1179   1.892   1_556  S
O1171      C1181   1.266       .  A
O1172      V2329   1.890   1_455  S
O1172      C1182   1.264       .  A
O1173      C1183   1.258       .  A
O1174      V2559   1.872   1_456  S
O1174      C1184   1.258       .  A
O1175      V2560   1.881   1_456  S
O1175      C1184   1.261       .  A
O1176      C1183   1.261       .  A
O1177      V2330   1.892   1_455  S
O1177      C1182   1.262       .  A
O1178      V1180   1.899   1_556  S
O1178      C1181   1.263       .  A
V1179      O2092   1.891       .  S
V1179      O2554   1.872   1_554  S
V1179      V1180   2.087       .  T
V1180      O2555   1.881   1_554  S
V1180      O2097   1.891       .  S
C1181      C1245   1.484       .  S
C1182      C1301   1.477       .  S
C1183      C1259   1.451       .  S
C1184      C1315   1.453       .  S
O1185      C1195   1.261       .  A
O1186      V1193   1.885       .  S
O1186      C1196   1.263       .  A
O1187      V1193   1.875       .  S
O1187      C1197   1.260       .  A
O1188      C1198   1.262       .  A
O1189      C1198   1.262       .  A
O1190      V1194   1.888       .  S
O1190      C1197   1.261       .  A
O1191      V1194   1.899       .  S
O1191      C1196   1.264       .  A
O1192      C1195   1.264       .  A
V1193      V1194   2.088       .  T
C1195      C1273   1.469       .  S
C1196      C1340   1.475       .  S
C1197      C1287   1.460       .  S
C1198      C1329   1.466       .  S
O1199      C1209   1.262       .  A
O1200      V1207   1.890       .  S
O1200      C1210   1.262       .  A
O1201      C1211   1.264       .  A
O1202      C1212   1.264       .  A
O1203      C1212   1.256       .  A
O1204      V1208   1.862       .  S
O1204      C1211   1.258       .  A
O1205      C1210   1.262       .  A
O1206      C1209   1.263       .  A
C1209      C1371   1.469       .  S
C1210      C1217   1.464       .  S
C1211      C1357   1.463       .  S
C1212      C1231   1.451       .  S
C1213      C1214   1.401       .  A
C1213      C1218   1.393       .  A
C1213      H1220   1.084       .  S
C1214      C1215   1.410       .  A
C1215      C1216   1.398       .  A
C1215      N1222   1.433       .  S
C1216      C1217   1.401       .  A
C1216      H1221   1.084       .  S
C1217      C1218   1.408       .  A
C1218      N1219   1.430       .  S
N1219      O1223   1.262       .  A
N1219      O1224   1.262       .  A
N1222      O1226   1.262       .  A
N1222      O1225   1.260       .  A
C1227      C1228   1.399       .  A
C1227      C1232   1.383       .  A
C1227      H1234   1.082       .  S
C1228      C1229   1.419       .  A
C1229      C1230   1.400       .  A
C1229      N1236   1.436       .  S
C1230      C1231   1.399       .  A
C1230      H1235   1.084       .  S
C1231      C1232   1.407       .  A
C1232      N1233   1.437       .  S
N1233      O1237   1.262       .  A
N1236      O1240   1.263       .  A
N1236      O1239   1.261       .  A
C1241      C1242   1.401       .  A
C1241      C1246   1.405       .  A
C1241      H1248   1.083       .  S
C1242      C1243   1.408       .  A
C1243      C1244   1.393       .  A
C1243      N1250   1.426       .  S
C1244      C1245   1.402       .  A
C1244      H1249   1.084       .  S
C1245      C1246   1.417       .  A
C1246      N1247   1.431       .  S
N1247      O1251   1.262       .  A
N1247      O1252   1.262       .  A
N1250      O1254   1.261       .  A
N1250      O1253   1.262       .  A
C1255      C1256   1.395       .  A
C1255      C1260   1.388       .  A
C1255      H1262   1.083       .  S
C1256      C1257   1.406       .  A
C1257      C1258   1.387       .  A
C1257      N1264   1.429       .  S
C1258      C1259   1.399       .  A
C1258      H1263   1.084       .  S
C1259      C1260   1.412       .  A
C1260      N1261   1.434       .  S
N1261      O1265   1.262       .  A
N1261      O1266   1.262       .  A
N1264      O1268   1.261       .  A
N1264      O1267   1.262       .  A
C1269      C1270   1.400       .  A
C1269      C1274   1.391       .  A
C1269      H1276   1.083       .  S
C1270      C1271   1.418       .  A
C1271      C1272   1.404       .  A
C1271      N1278   1.436       .  S
C1272      C1273   1.402       .  A
C1272      H1277   1.084       .  S
C1273      C1274   1.410       .  A
C1274      N1275   1.433       .  S
N1275      O1279   1.262       .  A
N1275      O1280   1.262       .  A
N1278      O1282   1.263       .  A
N1278      O1281   1.261       .  A
C1283      C1284   1.400       .  A
C1283      C1288   1.392       .  A
C1283      H1290   1.084       .  S
C1284      C1285   1.404       .  A
C1285      C1286   1.388       .  A
C1285      N1292   1.427       .  S
C1286      C1287   1.402       .  A
C1286      H1291   1.084       .  S
C1287      C1288   1.409       .  A
C1288      N1289   1.429       .  S
N1289      O1293   1.262       .  A
N1289      O1294   1.262       .  A
N1292      O1296   1.262       .  A
N1292      O1295   1.261       .  A
C1297      C1298   1.397       .  A
C1297      C1302   1.395       .  A
C1297      H1304   1.078       .  S
C1298      C1299   1.412       .  A
C1299      C1300   1.401       .  A
C1299      N1306   1.434       .  S
C1300      C1301   1.404       .  A
C1300      H1305   1.083       .  S
C1301      C1302   1.411       .  A
C1302      N1303   1.430       .  S
N1303      O1307   1.262       .  A
N1303      O1308   1.262       .  A
N1306      O1310   1.263       .  A
N1306      O1309   1.259       .  A
C1311      C1312   1.398       .  A
C1311      C1316   1.382       .  A
C1311      H1318   1.074       .  S
C1312      C1313   1.409       .  A
C1313      C1314   1.395       .  A
C1313      N1320   1.435       .  S
C1314      C1315   1.404       .  A
C1314      H1319   1.084       .  S
C1315      C1316   1.403       .  A
C1316      N1317   1.430       .  S
N1317      O1321   1.262       .  A
N1317      O1322   1.262       .  A
N1320      O1324   1.262       .  A
N1320      O1323   1.261       .  A
C1325      C1326   1.402       .  A
C1325      C1330   1.395       .  A
C1325      H1332   1.084       .  S
C1326      C1327   1.409       .  A
C1327      C1328   1.392       .  A
C1327      N1334   1.430       .  S
C1328      C1329   1.401       .  A
C1328      H1333   1.084       .  S
C1329      C1330   1.411       .  A
C1330      N1331   1.432       .  S
N1331      O1335   1.262       .  A
N1331      O1336   1.262       .  A
N1334      O1338   1.261       .  A
N1334      O1337   1.262       .  A
C1339      C1340   1.405       .  A
C1339      C1344   1.398       .  A
C1339      H1346   1.084       .  S
C1340      C1341   1.410       .  A
C1341      C1342   1.396       .  A
C1341      N1348   1.430       .  S
C1342      C1343   1.398       .  A
C1342      H1347   1.081       .  S
C1343      C1344   1.411       .  A
C1344      N1345   1.435       .  S
N1345      O1349   1.262       .  A
N1345      O1350   1.259       .  A
N1348      O1351   1.262       .  A
C1353      C1354   1.406       .  A
C1353      C1358   1.398       .  A
C1353      H1360   1.084       .  S
C1354      C1355   1.404       .  A
C1355      C1356   1.382       .  A
C1355      N1362   1.425       .  S
C1356      C1357   1.400       .  A
C1356      H1361   1.084       .  S
C1357      C1358   1.407       .  A
C1358      N1359   1.428       .  S
N1359      O1363   1.262       .  A
N1359      O1364   1.262       .  A
N1362      O1366   1.262       .  A
N1362      O1365   1.262       .  A
C1367      C1368   1.402       .  A
C1367      C1372   1.392       .  A
C1367      H1374   1.079       .  S
C1368      C1369   1.416       .  A
C1369      C1370   1.397       .  A
C1369      N1376   1.432       .  S
C1370      C1371   1.400       .  A
C1370      H1375   1.084       .  S
C1371      C1372   1.407       .  A
C1372      N1373   1.429       .  S
N1373      O1377   1.262       .  A
N1373      O1378   1.262       .  A
N1376      O1380   1.262       .  A
N1376      O1379   1.259       .  A
C1381      H1382   1.108       .  S
C1381      C1387   1.529       .  S
C1381      C1386   1.525       .  S
C1381      C1385   1.535       .  S
C1383      H1384   1.104       .  S
C1383      C1389   1.537       .  S
C1383      C1388   1.523       .  S
C1383      C1390   1.534       .  S
C1385      C1388   1.370       .  D
C1385      C1573   1.474       .  S
C1386      C1389   1.372       .  D
C1386      C1542   1.464       .  S
C1387      C1390   1.370       .  D
C1387      C1598   1.487       .  S
C1388      C1556   1.473       .  S
C1389      C1528   1.485       .  S
C1390      C1584   1.470       .  S
C1391      H1392   1.112       .  S
C1391      C1397   1.521       .  S
C1391      C1396   1.529       .  S
C1391      C1395   1.536       .  S
C1393      H1394   1.111       .  S
C1393      C1399   1.530       .  S
C1393      C1398   1.526       .  S
C1393      C1400   1.524       .  S
C1395      C1398   1.370       .  D
C1395      C1458   1.470       .  S
C1396      C1399   1.371       .  D
C1396      C1514   1.462       .  S
C1397      C1400   1.367       .  D
C1397      C1472   1.482       .  S
C1398      C1444   1.473       .  S
C1399      C1500   1.479       .  S
C1400      C1486   1.451       .  S
O1401      V1409   1.892       .  S
O1401      C1411   1.266       .  A
O1402      C1412   1.264       .  A
O1403      V1869   1.871       .  S
O1403      C1413   1.257       .  A
O1404      C1414   1.258       .  A
O1405      C1414   1.261       .  A
O1406      V1870   1.878       .  S
O1406      C1413   1.261       .  A
O1407      C1412   1.262       .  A
O1408      V1410   1.899       .  S
O1408      C1411   1.263       .  A
V1409      O1633   1.871       .  S
V1409      V1410   2.087       .  T
V1410      O1636   1.878       .  S
C1411      C1475   1.484       .  S
C1412      C1531   1.477       .  S
C1413      C1489   1.451       .  S
C1414      C1545   1.453       .  S
O1415      V1883   1.887   1_554  S
O1415      C1425   1.261       .  A
O1416      V1423   1.885       .  S
O1416      C1426   1.263       .  A
O1417      V1423   1.875       .  S
O1417      C1427   1.260       .  A
O1418      V1883   1.882   1_554  S
O1418      C1428   1.262       .  A
O1419      V1884   1.889   1_554  S
O1419      C1428   1.262       .  A
O1420      V1424   1.887       .  S
O1420      C1427   1.261       .  A
O1421      V1424   1.899       .  S
O1421      C1426   1.264       .  A
O1422      V1884   1.898   1_554  S
O1422      C1425   1.264       .  A
V1423      O1645   1.887       .  S
V1423      O1648   1.882       .  S
V1423      V1424   2.088       .  T
V1424      O1649   1.889       .  S
V1424      O1652   1.898       .  S
C1425      C1503   1.469       .  S
C1426      C1570   1.475       .  S
C1427      C1517   1.461       .  S
C1428      C1559   1.466       .  S
O1429      V2357   1.891       .  S
O1429      C1439   1.262       .  A
O1430      V1437   1.891   1_545  S
O1430      C1440   1.262       .  A
O1431      V2127   1.901       .  S
O1431      C1441   1.264       .  A
O1432      V1667   1.896   1_545  S
O1432      C1442   1.264       .  A
O1433      V2358   1.865   1_545  S
O1433      C1442   1.256       .  A
O1434      V1438   1.861   1_554  S
O1434      C1441   1.258       .  A
O1435      V2128   1.888   1_544  S
O1435      C1440   1.262       .  A
O1436      V1668   1.888       .  S
O1436      C1439   1.263       .  A
V1437      O2579   1.891   1_554  S
V1437      O2121   1.901       .  S
V1437      O1892   1.896   1_564  S
V1437      V2128   2.088   1_554  T
V1438      O2583   1.865       .  S
V1438      O2125   1.888   1_556  S
V1438      O1896   1.888       .  S
V1438      V2127   2.088   1_556  T
C1439      C1601   1.469       .  S
C1440      C1447   1.465       .  S
C1441      C1587   1.463       .  S
C1442      C1461   1.451       .  S
C1443      C1444   1.401       .  A
C1443      C1448   1.393       .  A
C1443      H1450   1.084       .  S
C1444      C1445   1.410       .  A
C1445      C1446   1.398       .  A
C1445      N1452   1.433       .  S
C1446      C1447   1.401       .  A
C1446      H1451   1.084       .  S
C1447      C1448   1.408       .  A
C1448      N1449   1.430       .  S
N1449      O1453   1.262       .  A
N1449      O1454   1.262       .  A
N1452      O1456   1.262       .  A
N1452      O1455   1.260       .  A
C1457      C1458   1.399       .  A
C1457      C1462   1.383       .  A
C1457      H1464   1.082       .  S
C1458      C1459   1.419       .  A
C1459      C1460   1.400       .  A
C1459      N1466   1.436       .  S
C1460      C1461   1.399       .  A
C1460      H1465   1.084       .  S
C1461      C1462   1.407       .  A
C1462      N1463   1.437       .  S
N1463      O1467   1.262       .  A
N1463      O1698   1.263       .  A
N1466      O1470   1.263       .  A
N1466      O1469   1.261       .  A
O1468      N1923   1.263       .  A
C1471      C1472   1.401       .  A
C1471      C1476   1.405       .  A
C1471      H1478   1.083       .  S
C1472      C1473   1.408       .  A
C1473      C1474   1.393       .  A
C1473      N1480   1.426       .  S
C1474      C1475   1.402       .  A
C1474      H1479   1.084       .  S
C1475      C1476   1.417       .  A
C1476      N1477   1.431       .  S
N1477      O1481   1.262       .  A
N1477      O1482   1.262       .  A
N1480      O1484   1.261       .  A
N1480      O1483   1.262       .  A
C1485      C1486   1.395       .  A
C1485      C1490   1.388       .  A
C1485      H1492   1.083       .  S
C1486      C1487   1.406       .  A
C1487      C1488   1.387       .  A
C1487      N1494   1.429       .  S
C1488      C1489   1.399       .  A
C1488      H1493   1.084       .  S
C1489      C1490   1.412       .  A
C1490      N1491   1.434       .  S
N1491      O1495   1.262       .  A
N1491      O1496   1.262       .  A
N1494      O1498   1.261       .  A
N1494      O1497   1.262       .  A
C1499      C1500   1.400       .  A
C1499      C1504   1.392       .  A
C1499      H1506   1.083       .  S
C1500      C1501   1.418       .  A
C1501      C1502   1.404       .  A
C1501      N1508   1.436       .  S
C1502      C1503   1.401       .  A
C1502      H1507   1.084       .  S
C1503      C1504   1.410       .  A
C1504      N1505   1.433       .  S
N1505      O1509   1.262       .  A
N1505      O1510   1.262       .  A
N1508      O1512   1.263       .  A
N1508      O1511   1.261       .  A
C1513      C1514   1.400       .  A
C1513      C1518   1.392       .  A
C1513      H1520   1.084       .  S
C1514      C1515   1.404       .  A
C1515      C1516   1.388       .  A
C1515      N1522   1.427       .  S
C1516      C1517   1.402       .  A
C1516      H1521   1.084       .  S
C1517      C1518   1.409       .  A
C1518      N1519   1.429       .  S
N1519      O1523   1.262       .  A
N1519      O1524   1.262       .  A
N1522      O1526   1.262       .  A
N1522      O1525   1.261       .  A
C1527      C1528   1.397       .  A
C1527      C1532   1.395       .  A
C1527      H1534   1.078       .  S
C1528      C1529   1.412       .  A
C1529      C1530   1.401       .  A
C1529      N1536   1.434       .  S
C1530      C1531   1.404       .  A
C1530      H1535   1.083       .  S
C1531      C1532   1.411       .  A
C1532      N1533   1.430       .  S
N1533      O1537   1.262       .  A
N1533      O1538   1.262       .  A
N1536      O1540   1.263       .  A
N1536      O1539   1.260       .  A
C1541      C1542   1.398       .  A
C1541      C1546   1.382       .  A
C1541      H1548   1.074       .  S
C1542      C1543   1.409       .  A
C1543      C1544   1.395       .  A
C1543      N1550   1.435       .  S
C1544      C1545   1.404       .  A
C1544      H1549   1.084       .  S
C1545      C1546   1.403       .  A
C1546      N1547   1.430       .  S
N1547      O1551   1.262       .  A
N1547      O1552   1.262       .  A
N1550      O1554   1.262       .  A
N1550      O1553   1.261       .  A
C1555      C1556   1.402       .  A
C1555      C1560   1.395       .  A
C1555      H1562   1.084       .  S
C1556      C1557   1.409       .  A
C1557      C1558   1.392       .  A
C1557      N1564   1.430       .  S
C1558      C1559   1.401       .  A
C1558      H1563   1.084       .  S
C1559      C1560   1.411       .  A
C1560      N1561   1.432       .  S
N1561      O1565   1.262       .  A
N1561      O1566   1.262       .  A
N1564      O1568   1.261       .  A
N1564      O1567   1.262       .  A
C1569      C1570   1.405       .  A
C1569      C1574   1.398       .  A
C1569      H1576   1.084       .  S
C1570      C1571   1.410       .  A
C1571      C1572   1.396       .  A
C1571      N1578   1.430       .  S
C1572      C1573   1.398       .  A
C1572      H1577   1.081       .  S
C1573      C1574   1.411       .  A
C1574      N1575   1.435       .  S
N1575      O1579   1.262       .  A
N1575      O1580   1.259       .  A
N1578      O1812   1.262       .  A
N1578      O1581   1.262       .  A
O1582      N2038   1.262       .  A
C1583      C1584   1.406       .  A
C1583      C1588   1.398       .  A
C1583      H1590   1.084       .  S
C1584      C1585   1.404       .  A
C1585      C1586   1.382       .  A
C1585      N1592   1.425       .  S
C1586      C1587   1.400       .  A
C1586      H1591   1.084       .  S
C1587      C1588   1.407       .  A
C1588      N1589   1.428       .  S
N1589      O1593   1.262       .  A
N1589      O1594   1.262       .  A
N1592      O1596   1.262       .  A
N1592      O1595   1.262       .  A
C1597      C1598   1.402       .  A
C1597      C1602   1.392       .  A
C1597      H1604   1.078       .  S
C1598      C1599   1.416       .  A
C1599      C1600   1.397       .  A
C1599      N1606   1.432       .  S
C1600      C1601   1.400       .  A
C1600      H1605   1.084       .  S
C1601      C1602   1.407       .  A
C1602      N1603   1.429       .  S
N1603      O1607   1.262       .  A
N1603      O1608   1.262       .  A
N1606      O1610   1.262       .  A
N1606      O1609   1.259       .  A
C1611      H1612   1.108       .  S
C1611      C1617   1.529       .  S
C1611      C1616   1.525       .  S
C1611      C1615   1.535       .  S
C1613      H1614   1.104       .  S
C1613      C1619   1.537       .  S
C1613      C1618   1.523       .  S
C1613      C1620   1.534       .  S
C1615      C1618   1.370       .  D
C1615      C1803   1.474       .  S
C1616      C1619   1.372       .  D
C1616      C1772   1.464       .  S
C1617      C1620   1.370       .  D
C1617      C1828   1.487       .  S
C1618      C1786   1.473       .  S
C1619      C1758   1.485       .  S
C1620      C1814   1.470       .  S
C1621      H1622   1.112       .  S
C1621      C1627   1.521       .  S
C1621      C1626   1.529       .  S
C1621      C1625   1.536       .  S
C1623      H1624   1.111       .  S
C1623      C1629   1.530       .  S
C1623      C1628   1.526       .  S
C1623      C1630   1.524       .  S
C1625      C1628   1.370       .  D
C1625      C1688   1.470       .  S
C1626      C1629   1.371       .  D
C1626      C1744   1.462       .  S
C1627      C1630   1.367       .  D
C1627      C1702   1.482       .  S
C1628      C1674   1.473       .  S
C1629      C1730   1.479       .  S
C1630      C1716   1.451       .  S
O1631      V1639   1.892       .  S
O1631      C1641   1.266       .  A
O1632      C1642   1.264       .  A
O1633      C1643   1.257       .  A
O1634      C1644   1.258       .  A
O1635      C1644   1.261       .  A
O1636      C1643   1.261       .  A
O1637      C1642   1.262       .  A
O1638      V1640   1.899       .  S
O1638      C1641   1.263       .  A
V1639      O1863   1.871       .  S
V1639      V1640   2.087       .  T
V1640      O1866   1.878       .  S
C1641      C1705   1.484       .  S
C1642      C1761   1.477       .  S
C1643      C1719   1.451       .  S
C1644      C1775   1.453       .  S
O1645      C1655   1.261       .  A
O1646      V1653   1.885       .  S
O1646      C1656   1.263       .  A
O1647      V1653   1.875       .  S
O1647      C1657   1.260       .  A
O1648      C1658   1.262       .  A
O1649      C1658   1.262       .  A
O1650      V1654   1.887       .  S
O1650      C1657   1.261       .  A
O1651      V1654   1.899       .  S
O1651      C1656   1.264       .  A
O1652      C1655   1.264       .  A
V1653      O1875   1.887       .  S
V1653      O1878   1.882       .  S
V1653      V1654   2.088       .  T
V1654      O1879   1.889       .  S
V1654      O1882   1.898       .  S
C1655      C1733   1.469       .  S
C1656      C1800   1.475       .  S
C1657      C1747   1.461       .  S
C1658      C1789   1.466       .  S
O1659      V2587   1.891       .  S
O1659      C1669   1.262       .  A
O1660      V1667   1.891   1_545  S
O1660      C1670   1.262       .  A
O1661      V2357   1.901       .  S
O1661      C1671   1.264       .  A
O1662      V1897   1.896   1_545  S
O1662      C1672   1.264       .  A
O1663      V2588   1.865   1_545  S
O1663      C1672   1.256       .  A
O1664      V1668   1.861       .  S
O1664      C1671   1.258       .  A
O1665      V2358   1.888   1_545  S
O1665      C1670   1.262       .  A
O1666      V1898   1.888       .  S
O1666      C1669   1.263       .  A
V1667      O2119   1.891       .  S
V1667      O2351   1.901       .  S
V1667      V2358   2.088       .  T
V1668      O2123   1.865       .  S
V1668      O2355   1.888       .  S
V1668      V2357   2.088       .  T
C1669      C1831   1.469       .  S
C1670      C1677   1.465       .  S
C1671      C1817   1.463       .  S
C1672      C1691   1.451       .  S
C1673      C1674   1.401       .  A
C1673      C1678   1.393       .  A
C1673      H1680   1.084       .  S
C1674      C1675   1.410       .  A
C1675      C1676   1.398       .  A
C1675      N1682   1.433       .  S
C1676      C1677   1.401       .  A
C1676      H1681   1.084       .  S
C1677      C1678   1.408       .  A
C1678      N1679   1.430       .  S
N1679      O1683   1.262       .  A
N1679      O1684   1.262       .  A
N1682      O1686   1.262       .  A
N1682      O1685   1.260       .  A
C1687      C1688   1.399       .  A
C1687      C1692   1.383       .  A
C1687      H1694   1.082       .  S
C1688      C1689   1.419       .  A
C1689      C1690   1.400       .  A
C1689      N1696   1.436       .  S
C1690      C1691   1.399       .  A
C1690      H1695   1.084       .  S
C1691      C1692   1.407       .  A
C1692      N1693   1.437       .  S
N1693      O1697   1.262       .  A
N1693      O1928   1.263       .  A
N1696      O1700   1.263       .  A
N1696      O1699   1.261       .  A
C1701      C1702   1.401       .  A
C1701      C1706   1.405       .  A
C1701      H1708   1.083       .  S
C1702      C1703   1.408       .  A
C1703      C1704   1.393       .  A
C1703      N1710   1.426       .  S
C1704      C1705   1.402       .  A
C1704      H1709   1.084       .  S
C1705      C1706   1.417       .  A
C1706      N1707   1.431       .  S
N1707      O1711   1.262       .  A
N1707      O1712   1.262       .  A
N1710      O1714   1.261       .  A
N1710      O1713   1.262       .  A
C1715      C1716   1.395       .  A
C1715      C1720   1.388       .  A
C1715      H1722   1.083       .  S
C1716      C1717   1.406       .  A
C1717      C1718   1.387       .  A
C1717      N1724   1.429       .  S
C1718      C1719   1.399       .  A
C1718      H1723   1.084       .  S
C1719      C1720   1.412       .  A
C1720      N1721   1.434       .  S
N1721      O1725   1.262       .  A
N1721      O1726   1.262       .  A
N1724      O1728   1.261       .  A
N1724      O1727   1.262       .  A
C1729      C1730   1.400       .  A
C1729      C1734   1.392       .  A
C1729      H1736   1.083       .  S
C1730      C1731   1.418       .  A
C1731      C1732   1.404       .  A
C1731      N1738   1.436       .  S
C1732      C1733   1.401       .  A
C1732      H1737   1.084       .  S
C1733      C1734   1.410       .  A
C1734      N1735   1.433       .  S
N1735      O1739   1.262       .  A
N1735      O1740   1.262       .  A
N1738      O1742   1.263       .  A
N1738      O1741   1.261       .  A
C1743      C1744   1.400       .  A
C1743      C1748   1.392       .  A
C1743      H1750   1.084       .  S
C1744      C1745   1.404       .  A
C1745      C1746   1.388       .  A
C1745      N1752   1.427       .  S
C1746      C1747   1.402       .  A
C1746      H1751   1.084       .  S
C1747      C1748   1.409       .  A
C1748      N1749   1.429       .  S
N1749      O1753   1.262       .  A
N1749      O1754   1.262       .  A
N1752      O1756   1.262       .  A
N1752      O1755   1.261       .  A
C1757      C1758   1.397       .  A
C1757      C1762   1.395       .  A
C1757      H1764   1.078       .  S
C1758      C1759   1.412       .  A
C1759      C1760   1.401       .  A
C1759      N1766   1.434       .  S
C1760      C1761   1.404       .  A
C1760      H1765   1.083       .  S
C1761      C1762   1.411       .  A
C1762      N1763   1.430       .  S
N1763      O1767   1.262       .  A
N1763      O1768   1.262       .  A
N1766      O1770   1.263       .  A
N1766      O1769   1.260       .  A
C1771      C1772   1.398       .  A
C1771      C1776   1.382       .  A
C1771      H1778   1.074       .  S
C1772      C1773   1.409       .  A
C1773      C1774   1.395       .  A
C1773      N1780   1.435       .  S
C1774      C1775   1.404       .  A
C1774      H1779   1.084       .  S
C1775      C1776   1.403       .  A
C1776      N1777   1.430       .  S
N1777      O1781   1.262       .  A
N1777      O1782   1.262       .  A
N1780      O1784   1.262       .  A
N1780      O1783   1.261       .  A
C1785      C1786   1.402       .  A
C1785      C1790   1.395       .  A
C1785      H1792   1.084       .  S
C1786      C1787   1.409       .  A
C1787      C1788   1.392       .  A
C1787      N1794   1.430       .  S
C1788      C1789   1.401       .  A
C1788      H1793   1.084       .  S
C1789      C1790   1.411       .  A
C1790      N1791   1.432       .  S
N1791      O1795   1.262       .  A
N1791      O1796   1.262       .  A
N1794      O1798   1.261       .  A
N1794      O1797   1.262       .  A
C1799      C1800   1.405       .  A
C1799      C1804   1.398       .  A
C1799      H1806   1.084       .  S
C1800      C1801   1.410       .  A
C1801      C1802   1.396       .  A
C1801      N1808   1.430       .  S
C1802      C1803   1.398       .  A
C1802      H1807   1.081       .  S
C1803      C1804   1.411       .  A
C1804      N1805   1.435       .  S
N1805      O1809   1.262       .  A
N1805      O1810   1.259       .  A
N1808      O2042   1.262       .  A
N1808      O1811   1.262       .  A
C1813      C1814   1.406       .  A
C1813      C1818   1.398       .  A
C1813      H1820   1.084       .  S
C1814      C1815   1.404       .  A
C1815      C1816   1.382       .  A
C1815      N1822   1.425       .  S
C1816      C1817   1.400       .  A
C1816      H1821   1.084       .  S
C1817      C1818   1.407       .  A
C1818      N1819   1.428       .  S
N1819      O1823   1.262       .  A
N1819      O1824   1.262       .  A
N1822      O1826   1.262       .  A
N1822      O1825   1.262       .  A
C1827      C1828   1.402       .  A
C1827      C1832   1.392       .  A
C1827      H1834   1.078       .  S
C1828      C1829   1.416       .  A
C1829      C1830   1.397       .  A
C1829      N1836   1.432       .  S
C1830      C1831   1.400       .  A
C1830      H1835   1.084       .  S
C1831      C1832   1.407       .  A
C1832      N1833   1.429       .  S
N1833      O1837   1.262       .  A
N1833      O1838   1.262       .  A
N1836      O1840   1.262       .  A
N1836      O1839   1.259       .  A
C1841      H1842   1.108       .  S
C1841      C1847   1.529       .  S
C1841      C1846   1.525       .  S
C1841      C1845   1.535       .  S
C1843      H1844   1.104       .  S
C1843      C1849   1.537       .  S
C1843      C1848   1.523       .  S
C1843      C1850   1.534       .  S
C1845      C1848   1.370       .  D
C1845      C2033   1.474       .  S
C1846      C1849   1.372       .  D
C1846      C2002   1.464       .  S
C1847      C1850   1.370       .  D
C1847      C2058   1.487       .  S
C1848      C2016   1.473       .  S
C1849      C1988   1.485       .  S
C1850      C2044   1.470       .  S
C1851      H1852   1.112       .  S
C1851      C1857   1.521       .  S
C1851      C1856   1.529       .  S
C1851      C1855   1.536       .  S
C1853      H1854   1.111       .  S
C1853      C1859   1.530       .  S
C1853      C1858   1.526       .  S
C1853      C1860   1.524       .  S
C1855      C1858   1.370       .  D
C1855      C1918   1.470       .  S
C1856      C1859   1.371       .  D
C1856      C1974   1.462       .  S
C1857      C1860   1.367       .  D
C1857      C1932   1.482       .  S
C1858      C1904   1.473       .  S
C1859      C1960   1.479       .  S
C1860      C1946   1.451       .  S
O1861      V1869   1.892   1_556  S
O1861      C1871   1.266       .  A
O1862      C1872   1.264       .  A
O1863      C1873   1.257       .  A
O1864      C1874   1.258       .  A
O1865      C1874   1.261       .  A
O1866      C1873   1.261       .  A
O1867      C1872   1.262       .  A
O1868      V1870   1.899   1_556  S
O1868      C1871   1.263       .  A
V1869      V1870   2.087       .  T
C1871      C1935   1.484       .  S
C1872      C1991   1.477       .  S
C1873      C1949   1.451       .  S
C1874      C2005   1.453       .  S
O1875      C1885   1.261       .  A
O1876      V1883   1.885       .  S
O1876      C1886   1.263       .  A
O1877      V1883   1.875       .  S
O1877      C1887   1.260       .  A
O1878      C1888   1.262       .  A
O1879      C1888   1.262       .  A
O1880      V1884   1.887       .  S
O1880      C1887   1.261       .  A
O1881      V1884   1.899       .  S
O1881      C1886   1.264       .  A
O1882      C1885   1.264       .  A
V1883      V1884   2.088       .  T
C1885      C1963   1.469       .  S
C1886      C2030   1.475       .  S
C1887      C1977   1.461       .  S
C1888      C2019   1.466       .  S
O1889      V2127   1.891   1_556  S
O1889      C1899   1.262       .  A
O1890      V1897   1.891   1_545  S
O1890      C1900   1.262       .  A
O1891      V2587   1.901       .  S
O1891      C1901   1.264       .  A
O1892      C1902   1.264       .  A
O1893      V2128   1.865   1_545  S
O1893      C1902   1.256       .  A
O1894      V1898   1.861       .  S
O1894      C1901   1.258       .  A
O1895      V2588   1.888   1_545  S
O1895      C1900   1.262       .  A
O1896      C1899   1.263       .  A
V1897      O2349   1.891       .  S
V1897      O2581   1.901       .  S
V1897      V2588   2.088       .  T
V1898      O2353   1.865       .  S
V1898      O2585   1.888       .  S
V1898      V2587   2.088       .  T
C1899      C2061   1.469       .  S
C1900      C1907   1.465       .  S
C1901      C2047   1.463       .  S
C1902      C1921   1.451       .  S
C1903      C1904   1.401       .  A
C1903      C1908   1.393       .  A
C1903      H1910   1.084       .  S
C1904      C1905   1.410       .  A
C1905      C1906   1.398       .  A
C1905      N1912   1.433       .  S
C1906      C1907   1.401       .  A
C1906      H1911   1.084       .  S
C1907      C1908   1.408       .  A
C1908      N1909   1.430       .  S
N1909      O1913   1.262       .  A
N1909      O1914   1.262       .  A
N1912      O1916   1.262       .  A
N1912      O1915   1.260       .  A
C1917      C1918   1.399       .  A
C1917      C1922   1.383       .  A
C1917      H1924   1.082       .  S
C1918      C1919   1.419       .  A
C1919      C1920   1.400       .  A
C1919      N1926   1.436       .  S
C1920      C1921   1.399       .  A
C1920      H1925   1.084       .  S
C1921      C1922   1.407       .  A
C1922      N1923   1.437       .  S
N1923      O1927   1.262       .  A
N1926      O1930   1.263       .  A
N1926      O1929   1.261       .  A
C1931      C1932   1.401       .  A
C1931      C1936   1.405       .  A
C1931      H1938   1.083       .  S
C1932      C1933   1.408       .  A
C1933      C1934   1.393       .  A
C1933      N1940   1.426       .  S
C1934      C1935   1.402       .  A
C1934      H1939   1.084       .  S
C1935      C1936   1.417       .  A
C1936      N1937   1.431       .  S
N1937      O1941   1.262       .  A
N1937      O1942   1.262       .  A
N1940      O1944   1.261       .  A
N1940      O1943   1.262       .  A
C1945      C1946   1.395       .  A
C1945      C1950   1.388       .  A
C1945      H1952   1.083       .  S
C1946      C1947   1.406       .  A
C1947      C1948   1.387       .  A
C1947      N1954   1.429       .  S
C1948      C1949   1.399       .  A
C1948      H1953   1.084       .  S
C1949      C1950   1.412       .  A
C1950      N1951   1.434       .  S
N1951      O1955   1.262       .  A
N1951      O1956   1.262       .  A
N1954      O1958   1.261       .  A
N1954      O1957   1.262       .  A
C1959      C1960   1.400       .  A
C1959      C1964   1.392       .  A
C1959      H1966   1.083       .  S
C1960      C1961   1.418       .  A
C1961      C1962   1.404       .  A
C1961      N1968   1.436       .  S
C1962      C1963   1.401       .  A
C1962      H1967   1.084       .  S
C1963      C1964   1.410       .  A
C1964      N1965   1.433       .  S
N1965      O1969   1.262       .  A
N1965      O1970   1.262       .  A
N1968      O1972   1.263       .  A
N1968      O1971   1.261       .  A
C1973      C1974   1.400       .  A
C1973      C1978   1.392       .  A
C1973      H1980   1.084       .  S
C1974      C1975   1.404       .  A
C1975      C1976   1.388       .  A
C1975      N1982   1.427       .  S
C1976      C1977   1.402       .  A
C1976      H1981   1.084       .  S
C1977      C1978   1.409       .  A
C1978      N1979   1.429       .  S
N1979      O1983   1.262       .  A
N1979      O1984   1.262       .  A
N1982      O1986   1.262       .  A
N1982      O1985   1.261       .  A
C1987      C1988   1.397       .  A
C1987      C1992   1.395       .  A
C1987      H1994   1.078       .  S
C1988      C1989   1.412       .  A
C1989      C1990   1.401       .  A
C1989      N1996   1.434       .  S
C1990      C1991   1.404       .  A
C1990      H1995   1.083       .  S
C1991      C1992   1.411       .  A
C1992      N1993   1.430       .  S
N1993      O1997   1.262       .  A
N1993      O1998   1.262       .  A
N1996      O2000   1.263       .  A
N1996      O1999   1.260       .  A
C2001      C2002   1.398       .  A
C2001      C2006   1.382       .  A
C2001      H2008   1.074       .  S
C2002      C2003   1.409       .  A
C2003      C2004   1.395       .  A
C2003      N2010   1.435       .  S
C2004      C2005   1.404       .  A
C2004      H2009   1.084       .  S
C2005      C2006   1.403       .  A
C2006      N2007   1.430       .  S
N2007      O2011   1.262       .  A
N2007      O2012   1.262       .  A
N2010      O2014   1.262       .  A
N2010      O2013   1.261       .  A
C2015      C2016   1.402       .  A
C2015      C2020   1.395       .  A
C2015      H2022   1.084       .  S
C2016      C2017   1.409       .  A
C2017      C2018   1.392       .  A
C2017      N2024   1.430       .  S
C2018      C2019   1.401       .  A
C2018      H2023   1.084       .  S
C2019      C2020   1.411       .  A
C2020      N2021   1.432       .  S
N2021      O2025   1.262       .  A
N2021      O2026   1.262       .  A
N2024      O2028   1.261       .  A
N2024      O2027   1.262       .  A
C2029      C2030   1.405       .  A
C2029      C2034   1.398       .  A
C2029      H2036   1.084       .  S
C2030      C2031   1.410       .  A
C2031      C2032   1.396       .  A
C2031      N2038   1.430       .  S
C2032      C2033   1.398       .  A
C2032      H2037   1.081       .  S
C2033      C2034   1.411       .  A
C2034      N2035   1.435       .  S
N2035      O2039   1.262       .  A
N2035      O2040   1.259       .  A
N2038      O2041   1.262       .  A
C2043      C2044   1.406       .  A
C2043      C2048   1.398       .  A
C2043      H2050   1.084       .  S
C2044      C2045   1.404       .  A
C2045      C2046   1.382       .  A
C2045      N2052   1.425       .  S
C2046      C2047   1.400       .  A
C2046      H2051   1.084       .  S
C2047      C2048   1.407       .  A
C2048      N2049   1.428       .  S
N2049      O2053   1.262       .  A
N2049      O2054   1.262       .  A
N2052      O2056   1.262       .  A
N2052      O2055   1.262       .  A
C2057      C2058   1.402       .  A
C2057      C2062   1.392       .  A
C2057      H2064   1.078       .  S
C2058      C2059   1.416       .  A
C2059      C2060   1.397       .  A
C2059      N2066   1.432       .  S
C2060      C2061   1.400       .  A
C2060      H2065   1.084       .  S
C2061      C2062   1.407       .  A
C2062      N2063   1.429       .  S
N2063      O2067   1.262       .  A
N2063      O2068   1.262       .  A
N2066      O2070   1.262       .  A
N2066      O2069   1.259       .  A
C2071      H2072   1.108       .  S
C2071      C2077   1.529       .  S
C2071      C2076   1.524       .  S
C2071      C2075   1.535       .  S
C2073      H2074   1.104       .  S
C2073      C2079   1.537       .  S
C2073      C2078   1.523       .  S
C2073      C2080   1.534       .  S
C2075      C2078   1.370       .  D
C2075      C2263   1.474       .  S
C2076      C2079   1.372       .  D
C2076      C2232   1.464       .  S
C2077      C2080   1.370       .  D
C2077      C2288   1.487       .  S
C2078      C2246   1.473       .  S
C2079      C2218   1.485       .  S
C2080      C2274   1.470       .  S
C2081      H2082   1.112       .  S
C2081      C2087   1.521       .  S
C2081      C2086   1.529       .  S
C2081      C2085   1.536       .  S
C2083      H2084   1.111       .  S
C2083      C2089   1.530       .  S
C2083      C2088   1.526       .  S
C2083      C2090   1.524       .  S
C2085      C2088   1.370       .  D
C2085      C2148   1.470       .  S
C2086      C2089   1.371       .  D
C2086      C2204   1.462       .  S
C2087      C2090   1.367       .  D
C2087      C2162   1.482       .  S
C2088      C2134   1.473       .  S
C2089      C2190   1.479       .  S
C2090      C2176   1.451       .  S
O2091      V2099   1.892       .  S
O2091      C2101   1.266       .  A
O2092      C2102   1.264       .  A
O2093      V2559   1.871       .  S
O2093      C2103   1.257       .  A
O2094      C2104   1.258       .  A
O2095      C2104   1.261       .  A
O2096      V2560   1.878       .  S
O2096      C2103   1.261       .  A
O2097      C2102   1.262       .  A
O2098      V2100   1.899       .  S
O2098      C2101   1.263       .  A
V2099      O2323   1.871       .  S
V2099      V2100   2.087       .  T
V2100      O2326   1.878       .  S
C2101      C2165   1.484       .  S
C2102      C2221   1.477       .  S
C2103      C2179   1.451       .  S
C2104      C2235   1.453       .  S
O2105      V2573   1.887   1_554  S
O2105      C2115   1.261       .  A
O2106      V2113   1.885       .  S
O2106      C2116   1.263       .  A
O2107      V2113   1.875       .  S
O2107      C2117   1.260       .  A
O2108      V2573   1.882   1_554  S
O2108      C2118   1.262       .  A
O2109      V2574   1.889   1_554  S
O2109      C2118   1.262       .  A
O2110      V2114   1.887       .  S
O2110      C2117   1.261       .  A
O2111      V2114   1.899       .  S
O2111      C2116   1.264       .  A
O2112      V2574   1.898   1_554  S
O2112      C2115   1.264       .  A
V2113      O2335   1.887       .  S
V2113      O2338   1.882       .  S
V2113      V2114   2.088       .  T
V2114      O2339   1.889       .  S
V2114      O2342   1.898       .  S
C2115      C2193   1.469       .  S
C2116      C2260   1.475       .  S
C2117      C2207   1.461       .  S
C2118      C2249   1.466       .  S
O2119      C2129   1.262       .  A
O2120      V2127   1.891       .  S
O2120      C2130   1.262       .  A
O2121      C2131   1.264       .  A
O2122      V2357   1.896       .  S
O2122      C2132   1.264       .  A
O2123      C2132   1.256       .  A
O2124      V2128   1.861   1_554  S
O2124      C2131   1.258       .  A
O2125      C2130   1.262       .  A
O2126      V2358   1.888       .  S
O2126      C2129   1.263       .  A
V2127      O2582   1.896   1_554  S
V2128      O2586   1.888       .  S
C2129      C2291   1.469       .  S
C2130      C2137   1.465       .  S
C2131      C2277   1.463       .  S
C2132      C2151   1.451       .  S
C2133      C2134   1.401       .  A
C2133      C2138   1.393       .  A
C2133      H2140   1.084       .  S
C2134      C2135   1.410       .  A
C2135      C2136   1.398       .  A
C2135      N2142   1.433       .  S
C2136      C2137   1.401       .  A
C2136      H2141   1.084       .  S
C2137      C2138   1.408       .  A
C2138      N2139   1.430       .  S
N2139      O2143   1.262       .  A
N2139      O2144   1.262       .  A
N2142      O2146   1.262       .  A
N2142      O2145   1.260       .  A
C2147      C2148   1.399       .  A
C2147      C2152   1.383       .  A
C2147      H2154   1.082       .  S
C2148      C2149   1.419       .  A
C2149      C2150   1.400       .  A
C2149      N2156   1.436       .  S
C2150      C2151   1.399       .  A
C2150      H2155   1.084       .  S
C2151      C2152   1.407       .  A
C2152      N2153   1.437       .  S
N2153      O2157   1.262       .  A
N2153      O2388   1.263       .  A
N2156      O2160   1.263       .  A
N2156      O2159   1.261       .  A
O2158      N2613   1.263       .  A
C2161      C2162   1.401       .  A
C2161      C2166   1.405       .  A
C2161      H2168   1.083       .  S
C2162      C2163   1.408       .  A
C2163      C2164   1.393       .  A
C2163      N2170   1.426       .  S
C2164      C2165   1.402       .  A
C2164      H2169   1.084       .  S
C2165      C2166   1.417       .  A
C2166      N2167   1.431       .  S
N2167      O2171   1.262       .  A
N2167      O2172   1.262       .  A
N2170      O2174   1.261       .  A
N2170      O2173   1.262       .  A
C2175      C2176   1.395       .  A
C2175      C2180   1.388       .  A
C2175      H2182   1.083       .  S
C2176      C2177   1.406       .  A
C2177      C2178   1.387       .  A
C2177      N2184   1.429       .  S
C2178      C2179   1.399       .  A
C2178      H2183   1.084       .  S
C2179      C2180   1.412       .  A
C2180      N2181   1.434       .  S
N2181      O2185   1.262       .  A
N2181      O2186   1.262       .  A
N2184      O2188   1.261       .  A
N2184      O2187   1.262       .  A
C2189      C2190   1.400       .  A
C2189      C2194   1.392       .  A
C2189      H2196   1.083       .  S
C2190      C2191   1.418       .  A
C2191      C2192   1.404       .  A
C2191      N2198   1.436       .  S
C2192      C2193   1.401       .  A
C2192      H2197   1.084       .  S
C2193      C2194   1.410       .  A
C2194      N2195   1.433       .  S
N2195      O2199   1.262       .  A
N2195      O2200   1.262       .  A
N2198      O2202   1.263       .  A
N2198      O2201   1.261       .  A
C2203      C2204   1.400       .  A
C2203      C2208   1.392       .  A
C2203      H2210   1.084       .  S
C2204      C2205   1.404       .  A
C2205      C2206   1.388       .  A
C2205      N2212   1.427       .  S
C2206      C2207   1.402       .  A
C2206      H2211   1.084       .  S
C2207      C2208   1.409       .  A
C2208      N2209   1.429       .  S
N2209      O2213   1.262       .  A
N2209      O2214   1.262       .  A
N2212      O2216   1.262       .  A
N2212      O2215   1.261       .  A
C2217      C2218   1.397       .  A
C2217      C2222   1.395       .  A
C2217      H2224   1.078       .  S
C2218      C2219   1.412       .  A
C2219      C2220   1.401       .  A
C2219      N2226   1.434       .  S
C2220      C2221   1.404       .  A
C2220      H2225   1.083       .  S
C2221      C2222   1.411       .  A
C2222      N2223   1.430       .  S
N2223      O2227   1.262       .  A
N2223      O2228   1.262       .  A
N2226      O2230   1.263       .  A
N2226      O2229   1.260       .  A
C2231      C2232   1.398       .  A
C2231      C2236   1.382       .  A
C2231      H2238   1.074       .  S
C2232      C2233   1.409       .  A
C2233      C2234   1.395       .  A
C2233      N2240   1.435       .  S
C2234      C2235   1.404       .  A
C2234      H2239   1.084       .  S
C2235      C2236   1.403       .  A
C2236      N2237   1.430       .  S
N2237      O2241   1.262       .  A
N2237      O2242   1.262       .  A
N2240      O2244   1.262       .  A
N2240      O2243   1.261       .  A
C2245      C2246   1.402       .  A
C2245      C2250   1.395       .  A
C2245      H2252   1.084       .  S
C2246      C2247   1.409       .  A
C2247      C2248   1.392       .  A
C2247      N2254   1.430       .  S
C2248      C2249   1.401       .  A
C2248      H2253   1.084       .  S
C2249      C2250   1.411       .  A
C2250      N2251   1.432       .  S
N2251      O2255   1.262       .  A
N2251      O2256   1.262       .  A
N2254      O2258   1.261       .  A
N2254      O2257   1.262       .  A
C2259      C2260   1.405       .  A
C2259      C2264   1.398       .  A
C2259      H2266   1.084       .  S
C2260      C2261   1.410       .  A
C2261      C2262   1.396       .  A
C2261      N2268   1.430       .  S
C2262      C2263   1.398       .  A
C2262      H2267   1.081       .  S
C2263      C2264   1.411       .  A
C2264      N2265   1.435       .  S
N2265      O2269   1.262       .  A
N2265      O2270   1.259       .  A
N2268      O2502   1.262       .  A
N2268      O2271   1.262       .  A
O2272      N2728   1.262       .  A
C2273      C2274   1.406       .  A
C2273      C2278   1.398       .  A
C2273      H2280   1.084       .  S
C2274      C2275   1.404       .  A
C2275      C2276   1.382       .  A
C2275      N2282   1.425       .  S
C2276      C2277   1.400       .  A
C2276      H2281   1.084       .  S
C2277      C2278   1.407       .  A
C2278      N2279   1.428       .  S
N2279      O2283   1.262       .  A
N2279      O2284   1.262       .  A
N2282      O2286   1.262       .  A
N2282      O2285   1.262       .  A
C2287      C2288   1.402       .  A
C2287      C2292   1.392       .  A
C2287      H2294   1.078       .  S
C2288      C2289   1.416       .  A
C2289      C2290   1.397       .  A
C2289      N2296   1.432       .  S
C2290      C2291   1.400       .  A
C2290      H2295   1.084       .  S
C2291      C2292   1.407       .  A
C2292      N2293   1.429       .  S
N2293      O2297   1.262       .  A
N2293      O2298   1.262       .  A
N2296      O2300   1.262       .  A
N2296      O2299   1.259       .  A
C2301      H2302   1.108       .  S
C2301      C2307   1.529       .  S
C2301      C2306   1.524       .  S
C2301      C2305   1.535       .  S
C2303      H2304   1.104       .  S
C2303      C2309   1.537       .  S
C2303      C2308   1.523       .  S
C2303      C2310   1.534       .  S
C2305      C2308   1.370       .  D
C2305      C2493   1.474       .  S
C2306      C2309   1.372       .  D
C2306      C2462   1.464       .  S
C2307      C2310   1.370       .  D
C2307      C2518   1.487       .  S
C2308      C2476   1.473       .  S
C2309      C2448   1.485       .  S
C2310      C2504   1.470       .  S
C2311      H2312   1.112       .  S
C2311      C2317   1.521       .  S
C2311      C2316   1.529       .  S
C2311      C2315   1.536       .  S
C2313      H2314   1.111       .  S
C2313      C2319   1.530       .  S
C2313      C2318   1.526       .  S
C2313      C2320   1.524       .  S
C2315      C2318   1.370       .  D
C2315      C2378   1.470       .  S
C2316      C2319   1.371       .  D
C2316      C2434   1.462       .  S
C2317      C2320   1.367       .  D
C2317      C2392   1.482       .  S
C2318      C2364   1.473       .  S
C2319      C2420   1.479       .  S
C2320      C2406   1.451       .  S
O2321      V2329   1.892       .  S
O2321      C2331   1.266       .  A
O2322      C2332   1.264       .  A
O2323      C2333   1.257       .  A
O2324      C2334   1.258       .  A
O2325      C2334   1.261       .  A
O2326      C2333   1.261       .  A
O2327      C2332   1.262       .  A
O2328      V2330   1.899       .  S
O2328      C2331   1.263       .  A
V2329      O2553   1.871       .  S
V2329      V2330   2.087       .  T
V2330      O2556   1.878       .  S
C2331      C2395   1.484       .  S
C2332      C2451   1.477       .  S
C2333      C2409   1.451       .  S
C2334      C2465   1.453       .  S
O2335      C2345   1.261       .  A
O2336      V2343   1.885       .  S
O2336      C2346   1.263       .  A
O2337      V2343   1.875       .  S
O2337      C2347   1.260       .  A
O2338      C2348   1.262       .  A
O2339      C2348   1.262       .  A
O2340      V2344   1.887       .  S
O2340      C2347   1.261       .  A
O2341      V2344   1.899       .  S
O2341      C2346   1.264       .  A
O2342      C2345   1.264       .  A
V2343      O2565   1.887       .  S
V2343      O2568   1.882       .  S
V2343      V2344   2.088       .  T
V2344      O2569   1.889       .  S
V2344      O2572   1.898       .  S
C2345      C2423   1.469       .  S
C2346      C2490   1.475       .  S
C2347      C2437   1.461       .  S
C2348      C2479   1.466       .  S
O2349      C2359   1.262       .  A
O2350      V2357   1.891       .  S
O2350      C2360   1.262       .  A
O2351      C2361   1.264       .  A
O2352      V2587   1.896       .  S
O2352      C2362   1.264       .  A
O2353      C2362   1.256       .  A
O2354      V2358   1.861       .  S
O2354      C2361   1.258       .  A
O2355      C2360   1.262       .  A
O2356      V2588   1.888       .  S
O2356      C2359   1.263       .  A
C2359      C2521   1.469       .  S
C2360      C2367   1.465       .  S
C2361      C2507   1.463       .  S
C2362      C2381   1.451       .  S
C2363      C2364   1.401       .  A
C2363      C2368   1.393       .  A
C2363      H2370   1.084       .  S
C2364      C2365   1.410       .  A
C2365      C2366   1.398       .  A
C2365      N2372   1.433       .  S
C2366      C2367   1.401       .  A
C2366      H2371   1.084       .  S
C2367      C2368   1.408       .  A
C2368      N2369   1.430       .  S
N2369      O2373   1.262       .  A
N2369      O2374   1.262       .  A
N2372      O2376   1.262       .  A
N2372      O2375   1.260       .  A
C2377      C2378   1.399       .  A
C2377      C2382   1.383       .  A
C2377      H2384   1.082       .  S
C2378      C2379   1.419       .  A
C2379      C2380   1.400       .  A
C2379      N2386   1.436       .  S
C2380      C2381   1.399       .  A
C2380      H2385   1.084       .  S
C2381      C2382   1.407       .  A
C2382      N2383   1.437       .  S
N2383      O2387   1.262       .  A
N2383      O2618   1.263       .  A
N2386      O2390   1.263       .  A
N2386      O2389   1.261       .  A
C2391      C2392   1.401       .  A
C2391      C2396   1.405       .  A
C2391      H2398   1.083       .  S
C2392      C2393   1.408       .  A
C2393      C2394   1.393       .  A
C2393      N2400   1.426       .  S
C2394      C2395   1.402       .  A
C2394      H2399   1.084       .  S
C2395      C2396   1.417       .  A
C2396      N2397   1.431       .  S
N2397      O2401   1.262       .  A
N2397      O2402   1.262       .  A
N2400      O2404   1.261       .  A
N2400      O2403   1.262       .  A
C2405      C2406   1.395       .  A
C2405      C2410   1.388       .  A
C2405      H2412   1.083       .  S
C2406      C2407   1.406       .  A
C2407      C2408   1.387       .  A
C2407      N2414   1.429       .  S
C2408      C2409   1.399       .  A
C2408      H2413   1.084       .  S
C2409      C2410   1.412       .  A
C2410      N2411   1.434       .  S
N2411      O2415   1.262       .  A
N2411      O2416   1.262       .  A
N2414      O2418   1.261       .  A
N2414      O2417   1.262       .  A
C2419      C2420   1.400       .  A
C2419      C2424   1.392       .  A
C2419      H2426   1.083       .  S
C2420      C2421   1.418       .  A
C2421      C2422   1.404       .  A
C2421      N2428   1.436       .  S
C2422      C2423   1.401       .  A
C2422      H2427   1.084       .  S
C2423      C2424   1.410       .  A
C2424      N2425   1.433       .  S
N2425      O2429   1.262       .  A
N2425      O2430   1.262       .  A
N2428      O2432   1.263       .  A
N2428      O2431   1.261       .  A
C2433      C2434   1.400       .  A
C2433      C2438   1.392       .  A
C2433      H2440   1.084       .  S
C2434      C2435   1.404       .  A
C2435      C2436   1.388       .  A
C2435      N2442   1.427       .  S
C2436      C2437   1.402       .  A
C2436      H2441   1.084       .  S
C2437      C2438   1.409       .  A
C2438      N2439   1.429       .  S
N2439      O2443   1.262       .  A
N2439      O2444   1.262       .  A
N2442      O2446   1.262       .  A
N2442      O2445   1.261       .  A
C2447      C2448   1.397       .  A
C2447      C2452   1.395       .  A
C2447      H2454   1.078       .  S
C2448      C2449   1.412       .  A
C2449      C2450   1.401       .  A
C2449      N2456   1.434       .  S
C2450      C2451   1.404       .  A
C2450      H2455   1.083       .  S
C2451      C2452   1.411       .  A
C2452      N2453   1.430       .  S
N2453      O2457   1.262       .  A
N2453      O2458   1.262       .  A
N2456      O2460   1.263       .  A
N2456      O2459   1.260       .  A
C2461      C2462   1.398       .  A
C2461      C2466   1.382       .  A
C2461      H2468   1.074       .  S
C2462      C2463   1.409       .  A
C2463      C2464   1.395       .  A
C2463      N2470   1.435       .  S
C2464      C2465   1.404       .  A
C2464      H2469   1.084       .  S
C2465      C2466   1.403       .  A
C2466      N2467   1.430       .  S
N2467      O2471   1.262       .  A
N2467      O2472   1.262       .  A
N2470      O2474   1.262       .  A
N2470      O2473   1.261       .  A
C2475      C2476   1.402       .  A
C2475      C2480   1.395       .  A
C2475      H2482   1.084       .  S
C2476      C2477   1.409       .  A
C2477      C2478   1.392       .  A
C2477      N2484   1.430       .  S
C2478      C2479   1.401       .  A
C2478      H2483   1.084       .  S
C2479      C2480   1.411       .  A
C2480      N2481   1.432       .  S
N2481      O2485   1.262       .  A
N2481      O2486   1.262       .  A
N2484      O2488   1.261       .  A
N2484      O2487   1.262       .  A
C2489      C2490   1.405       .  A
C2489      C2494   1.398       .  A
C2489      H2496   1.084       .  S
C2490      C2491   1.410       .  A
C2491      C2492   1.396       .  A
C2491      N2498   1.430       .  S
C2492      C2493   1.398       .  A
C2492      H2497   1.081       .  S
C2493      C2494   1.411       .  A
C2494      N2495   1.435       .  S
N2495      O2499   1.262       .  A
N2495      O2500   1.259       .  A
N2498      O2732   1.262       .  A
N2498      O2501   1.262       .  A
C2503      C2504   1.406       .  A
C2503      C2508   1.398       .  A
C2503      H2510   1.084       .  S
C2504      C2505   1.404       .  A
C2505      C2506   1.382       .  A
C2505      N2512   1.425       .  S
C2506      C2507   1.400       .  A
C2506      H2511   1.084       .  S
C2507      C2508   1.407       .  A
C2508      N2509   1.428       .  S
N2509      O2513   1.262       .  A
N2509      O2514   1.262       .  A
N2512      O2516   1.262       .  A
N2512      O2515   1.262       .  A
C2517      C2518   1.402       .  A
C2517      C2522   1.392       .  A
C2517      H2524   1.078       .  S
C2518      C2519   1.416       .  A
C2519      C2520   1.397       .  A
C2519      N2526   1.432       .  S
C2520      C2521   1.400       .  A
C2520      H2525   1.084       .  S
C2521      C2522   1.407       .  A
C2522      N2523   1.429       .  S
N2523      O2527   1.262       .  A
N2523      O2528   1.262       .  A
N2526      O2530   1.262       .  A
N2526      O2529   1.259       .  A
C2531      H2532   1.108       .  S
C2531      C2537   1.529       .  S
C2531      C2536   1.524       .  S
C2531      C2535   1.535       .  S
C2533      H2534   1.104       .  S
C2533      C2539   1.537       .  S
C2533      C2538   1.523       .  S
C2533      C2540   1.534       .  S
C2535      C2538   1.370       .  D
C2535      C2723   1.474       .  S
C2536      C2539   1.372       .  D
C2536      C2692   1.464       .  S
C2537      C2540   1.370       .  D
C2537      C2748   1.487       .  S
C2538      C2706   1.473       .  S
C2539      C2678   1.485       .  S
C2540      C2734   1.470       .  S
C2541      H2542   1.112       .  S
C2541      C2547   1.521       .  S
C2541      C2546   1.529       .  S
C2541      C2545   1.536       .  S
C2543      H2544   1.111       .  S
C2543      C2549   1.530       .  S
C2543      C2548   1.526       .  S
C2543      C2550   1.524       .  S
C2545      C2548   1.370       .  D
C2545      C2608   1.470       .  S
C2546      C2549   1.371       .  D
C2546      C2664   1.462       .  S
C2547      C2550   1.367       .  D
C2547      C2622   1.482       .  S
C2548      C2594   1.473       .  S
C2549      C2650   1.479       .  S
C2550      C2636   1.451       .  S
O2551      V2559   1.892   1_556  S
O2551      C2561   1.266       .  A
O2552      C2562   1.264       .  A
O2553      C2563   1.257       .  A
O2554      C2564   1.258       .  A
O2555      C2564   1.261       .  A
O2556      C2563   1.261       .  A
O2557      C2562   1.262       .  A
O2558      V2560   1.899   1_556  S
O2558      C2561   1.263       .  A
V2559      V2560   2.087       .  T
C2561      C2625   1.484       .  S
C2562      C2681   1.477       .  S
C2563      C2639   1.451       .  S
C2564      C2695   1.453       .  S
O2565      C2575   1.261       .  A
O2566      V2573   1.885       .  S
O2566      C2576   1.263       .  A
O2567      V2573   1.875       .  S
O2567      C2577   1.260       .  A
O2568      C2578   1.262       .  A
O2569      C2578   1.262       .  A
O2570      V2574   1.887       .  S
O2570      C2577   1.261       .  A
O2571      V2574   1.899       .  S
O2571      C2576   1.264       .  A
O2572      C2575   1.264       .  A
V2573      V2574   2.088       .  T
C2575      C2653   1.469       .  S
C2576      C2720   1.475       .  S
C2577      C2667   1.461       .  S
C2578      C2709   1.466       .  S
O2579      C2589   1.262       .  A
O2580      V2587   1.891       .  S
O2580      C2590   1.262       .  A
O2581      C2591   1.264       .  A
O2582      C2592   1.264       .  A
O2583      C2592   1.256       .  A
O2584      V2588   1.861       .  S
O2584      C2591   1.258       .  A
O2585      C2590   1.262       .  A
O2586      C2589   1.263       .  A
C2589      C2751   1.469       .  S
C2590      C2597   1.465       .  S
C2591      C2737   1.463       .  S
C2592      C2611   1.451       .  S
C2593      C2594   1.401       .  A
C2593      C2598   1.393       .  A
C2593      H2600   1.084       .  S
C2594      C2595   1.410       .  A
C2595      C2596   1.398       .  A
C2595      N2602   1.433       .  S
C2596      C2597   1.401       .  A
C2596      H2601   1.084       .  S
C2597      C2598   1.408       .  A
C2598      N2599   1.430       .  S
N2599      O2603   1.262       .  A
N2599      O2604   1.262       .  A
N2602      O2606   1.262       .  A
N2602      O2605   1.260       .  A
C2607      C2608   1.399       .  A
C2607      C2612   1.383       .  A
C2607      H2614   1.082       .  S
C2608      C2609   1.419       .  A
C2609      C2610   1.400       .  A
C2609      N2616   1.436       .  S
C2610      C2611   1.399       .  A
C2610      H2615   1.084       .  S
C2611      C2612   1.407       .  A
C2612      N2613   1.437       .  S
N2613      O2617   1.262       .  A
N2616      O2620   1.263       .  A
N2616      O2619   1.261       .  A
C2621      C2622   1.401       .  A
C2621      C2626   1.405       .  A
C2621      H2628   1.083       .  S
C2622      C2623   1.408       .  A
C2623      C2624   1.393       .  A
C2623      N2630   1.426       .  S
C2624      C2625   1.402       .  A
C2624      H2629   1.084       .  S
C2625      C2626   1.417       .  A
C2626      N2627   1.431       .  S
N2627      O2631   1.262       .  A
N2627      O2632   1.262       .  A
N2630      O2634   1.261       .  A
N2630      O2633   1.262       .  A
C2635      C2636   1.395       .  A
C2635      C2640   1.388       .  A
C2635      H2642   1.083       .  S
C2636      C2637   1.406       .  A
C2637      C2638   1.387       .  A
C2637      N2644   1.429       .  S
C2638      C2639   1.399       .  A
C2638      H2643   1.084       .  S
C2639      C2640   1.412       .  A
C2640      N2641   1.434       .  S
N2641      O2645   1.262       .  A
N2641      O2646   1.262       .  A
N2644      O2648   1.261       .  A
N2644      O2647   1.262       .  A
C2649      C2650   1.400       .  A
C2649      C2654   1.392       .  A
C2649      H2656   1.083       .  S
C2650      C2651   1.418       .  A
C2651      C2652   1.404       .  A
C2651      N2658   1.436       .  S
C2652      C2653   1.401       .  A
C2652      H2657   1.084       .  S
C2653      C2654   1.410       .  A
C2654      N2655   1.433       .  S
N2655      O2659   1.262       .  A
N2655      O2660   1.262       .  A
N2658      O2662   1.263       .  A
N2658      O2661   1.261       .  A
C2663      C2664   1.400       .  A
C2663      C2668   1.392       .  A
C2663      H2670   1.084       .  S
C2664      C2665   1.404       .  A
C2665      C2666   1.388       .  A
C2665      N2672   1.427       .  S
C2666      C2667   1.402       .  A
C2666      H2671   1.084       .  S
C2667      C2668   1.409       .  A
C2668      N2669   1.429       .  S
N2669      O2673   1.262       .  A
N2669      O2674   1.262       .  A
N2672      O2676   1.262       .  A
N2672      O2675   1.261       .  A
C2677      C2678   1.397       .  A
C2677      C2682   1.395       .  A
C2677      H2684   1.078       .  S
C2678      C2679   1.412       .  A
C2679      C2680   1.401       .  A
C2679      N2686   1.434       .  S
C2680      C2681   1.404       .  A
C2680      H2685   1.083       .  S
C2681      C2682   1.411       .  A
C2682      N2683   1.430       .  S
N2683      O2687   1.262       .  A
N2683      O2688   1.262       .  A
N2686      O2690   1.263       .  A
N2686      O2689   1.260       .  A
C2691      C2692   1.398       .  A
C2691      C2696   1.382       .  A
C2691      H2698   1.074       .  S
C2692      C2693   1.409       .  A
C2693      C2694   1.395       .  A
C2693      N2700   1.435       .  S
C2694      C2695   1.404       .  A
C2694      H2699   1.084       .  S
C2695      C2696   1.403       .  A
C2696      N2697   1.430       .  S
N2697      O2701   1.262       .  A
N2697      O2702   1.262       .  A
N2700      O2704   1.262       .  A
N2700      O2703   1.261       .  A
C2705      C2706   1.402       .  A
C2705      C2710   1.395       .  A
C2705      H2712   1.084       .  S
C2706      C2707   1.409       .  A
C2707      C2708   1.392       .  A
C2707      N2714   1.430       .  S
C2708      C2709   1.401       .  A
C2708      H2713   1.084       .  S
C2709      C2710   1.411       .  A
C2710      N2711   1.432       .  S
N2711      O2715   1.262       .  A
N2711      O2716   1.262       .  A
N2714      O2718   1.261       .  A
N2714      O2717   1.262       .  A
C2719      C2720   1.405       .  A
C2719      C2724   1.398       .  A
C2719      H2726   1.084       .  S
C2720      C2721   1.410       .  A
C2721      C2722   1.396       .  A
C2721      N2728   1.430       .  S
C2722      C2723   1.398       .  A
C2722      H2727   1.081       .  S
C2723      C2724   1.411       .  A
C2724      N2725   1.435       .  S
N2725      O2729   1.262       .  A
N2725      O2730   1.259       .  A
N2728      O2731   1.262       .  A
C2733      C2734   1.406       .  A
C2733      C2738   1.398       .  A
C2733      H2740   1.084       .  S
C2734      C2735   1.404       .  A
C2735      C2736   1.382       .  A
C2735      N2742   1.425       .  S
C2736      C2737   1.400       .  A
C2736      H2741   1.084       .  S
C2737      C2738   1.407       .  A
C2738      N2739   1.428       .  S
N2739      O2743   1.262       .  A
N2739      O2744   1.262       .  A
N2742      O2746   1.262       .  A
N2742      O2745   1.262       .  A
C2747      C2748   1.402       .  A
C2747      C2752   1.392       .  A
C2747      H2754   1.078       .  S
C2748      C2749   1.416       .  A
C2749      C2750   1.397       .  A
C2749      N2756   1.432       .  S
C2750      C2751   1.400       .  A
C2750      H2755   1.084       .  S
C2751      C2752   1.407       .  A
C2752      N2753   1.429       .  S
N2753      O2757   1.262       .  A
N2753      O2758   1.262       .  A
N2756      O2760   1.262       .  A
N2756      O2759   1.259       .  A
