geometry optimzed in LAMMPS
_audit_creation_date              2020-12-01 
_audit_creation_method            'lammps2cif' 
_symmetry_space_group_name_H-M    'P1' 
_symmetry_Int_Tables_number       1 
_symmetry_cell_setting            triclinic 
loop_ 
_symmetry_equiv_pos_as_xyz 
  x,y,z 
_cell_length_a                    47.98290166 
_cell_length_b                    48.318710878465325 
_cell_length_c                    70.65848135459771 
_cell_angle_alpha                 90.0941223721931 
_cell_angle_beta                  89.9299078175965 
_cell_angle_gamma                 120.09746465528717 
loop_ 
_atom_site_label 
_atom_site_type_symbol 
_atom_site_fract_x 
_atom_site_fract_y 
_atom_site_fract_z 
_atom_site_charge 
C1          C  0.16610068  0.33293239  0.65242953     0.45700
H2          H  0.16683186  0.33229841  0.66812706    -0.03400
C3          C  0.16426231  0.33389431  0.61564259     0.45700
H4          H  0.16354033  0.33483505  0.59997003    -0.03400
C5          C  0.14921737  0.35056377  0.64460420    -0.17000
C6          C  0.19977323  0.34959824  0.64308524    -0.16800
C7          C  0.14853159  0.29938708  0.64329308    -0.17200
C8          C  0.14819723  0.35073785  0.62517985    -0.17200
C9          C  0.19844164  0.34998618  0.62365711    -0.16700
C10         C  0.14721025  0.29990557  0.62380370    -0.17000
C11         C  0.16637563  0.33548685  0.81144923     0.45700
H12         H  0.16835880  0.33692270  0.79577285    -0.03400
C13         C  0.16144380  0.33226396  0.84818296     0.45700
H14         H  0.15945098  0.33101113  0.86386996    -0.03400
C15         C  0.19916182  0.35253384  0.82175732    -0.17000
C16         C  0.14755289  0.35097909  0.81971945    -0.16800
C17         C  0.14872583  0.30088735  0.81925935    -0.17200
C18         C  0.19627785  0.35062013  0.84113237    -0.17200
C19         C  0.14503614  0.34894558  0.83907246    -0.16700
C20         C  0.14659797  0.29950110  0.83869571    -0.17000
C21         C  0.99945185  0.00143059  0.71290238     0.45700
H22         H  0.99958842  0.00117372  0.69718308    -0.03400
C23         C  0.99904222  0.00192247  0.74983087     0.45700
H24         H  0.49893650  0.00236068  0.76555232    -0.03400
C25         C  0.01763465  0.48596301  0.72188879    -0.17000
C26         C  0.01461004  0.03520406  0.72147542    -0.16800
C27         C  0.46537263  0.48305377  0.72151826    -0.17200
C28         C  0.01774300  0.48656825  0.74141252    -0.17200
C29         C  0.01481978  0.03543975  0.74092385    -0.16700
C30         C  0.46517707  0.48361440  0.74100459    -0.17000
C31         C  0.33519328  0.17022476  0.31122222     0.45700
H32         H  0.33496888  0.17069131  0.29550411    -0.03400
C33         C  0.33575646  0.16937450  0.34806830     0.45700
H34         H  0.33583346  0.16886928  0.36380201    -0.03400
C35         C  0.30135965  0.15218791  0.32019455    -0.17000
C36         C  0.35322098  0.15403937  0.31953289    -0.16800
C37         C  0.35154407  0.20373023  0.32035090    -0.17200
C38         C  0.30200850  0.15178280  0.33959373    -0.17200
C39         C  0.35344603  0.15385073  0.33900120    -0.16700
C40         C  0.35184362  0.20304446  0.33977416    -0.17000
C41         C  0.33481485  0.16757080  0.11743079     0.45700
H42         H  0.33492910  0.16732161  0.10171597    -0.03400
C43         C  0.33504672  0.16812647  0.15428936     0.45700
H44         H  0.33503753  0.16859601  0.17000622    -0.03400
C45         C  0.30101473  0.15061281  0.12602493    -0.17000
C46         C  0.35155045  0.15078949  0.12611702    -0.16800
C47         C  0.35207056  0.20124136  0.12590478    -0.17200
C48         C  0.30095161  0.15134118  0.14548224    -0.17200
C49         C  0.35226758  0.15128280  0.14560492    -0.16700
C50         C  0.35217910  0.20177664  0.14533500    -0.17000
C51         C  0.00174753  0.00193938  0.21427381     0.45700
H52         H  0.00319074  0.00239498  0.19857537    -0.03400
C53         C  0.99905937  0.00066452  0.25120121     0.45700
H54         H  0.99774746  0.99997384  0.26690943    -0.03400
C55         C  0.48588727  0.02026383  0.22260645    -0.17000
C56         C  0.48290061  0.46798494  0.22259462    -0.16800
C57         C  0.03489109  0.01680519  0.22387977    -0.17200
C58         C  0.48402565  0.01900459  0.24210822    -0.17200
C59         C  0.48129958  0.46744306  0.24199844    -0.16700
C60         C  0.03353274  0.01667354  0.24333210    -0.17000
Zn61       Zn  0.00138418  0.00216486  0.95503745     1.49700
Zn62       Zn  0.02204618  0.04475685  0.99121198     1.49400
Zn63       Zn  0.45488572  0.47813830  0.99090708     1.49100
Zn64       Zn  0.02255185  0.47842326  0.99153273     1.49500
O65         O  0.00004465  0.00059184  0.98239990    -1.83900
O66         O  0.01960138  0.04636333  0.94463009    -0.74500
O67         O  0.49217481  0.05253711  0.00692185    -0.74400
O68         O  0.42387812  0.46003368  0.96853603    -0.73900
O69         O  0.03819926  0.07727655  0.96997913    -0.74600
O70         O  0.45763417  0.47554670  0.94416942    -0.74200
O71         O  0.44481705  0.00759668  0.00645462    -0.74700
O72         O  0.49266055  0.43983837  0.00745131    -0.74100
O73         O  0.05926166  0.05346839  0.00782399    -0.74900
O74         O  0.44717167  0.44147311  0.00798923    -0.74300
O75         O  0.05943888  0.00762931  0.00877631    -0.74700
O76         O  0.04154592  0.46556293  0.96959882    -0.74700
O77         O  0.02926289  0.48606811  0.94503834    -0.74400
C78         C  0.03444051  0.07397950  0.95212296     0.77300
C79         C  0.46275412  0.03647251  0.01185917     0.77800
C80         C  0.42915636  0.46077336  0.95077940     0.76800
C81         C  0.46383427  0.42898495  0.01325166     0.77200
C82         C  0.07107977  0.03670829  0.01381832     0.78300
C83         C  0.04310652  0.47183913  0.95195699     0.77400
Zn84       Zn  0.47772484  0.02509715  0.48768444     1.49700
Zn85       Zn  0.00303985  0.99919654  0.45439030     1.49400
Zn86       Zn  0.04499485  0.02663463  0.49130277     1.49100
Zn87       Zn  0.47860286  0.45928344  0.49259273     1.49500
O88         O  0.00098981  0.00247662  0.48164443    -1.83900
O89         O  0.46150318  0.03623454  0.46416360    -0.74500
O90         O  0.04829075  0.02251245  0.44466941    -0.74400
O91         O  0.05086117  0.06386846  0.50695793    -0.73900
O92         O  0.47940028  0.01772882  0.44125920    -0.74600
O93         O  0.00610160  0.06576270  0.50210124    -0.74200
O94         O  0.07820766  0.04432402  0.47022805    -0.74700
O95         O  0.00865079  0.45232109  0.50938507    -0.74100
O96         O  0.48240708  0.45383189  0.44611077    -0.74900
O97         O  0.05447733  0.49880340  0.50799539    -0.74300
O98         O  0.46184775  0.42506256  0.47216314    -0.74700
O99         O  0.44121189  0.45326475  0.50873594    -0.74700
O100        O  0.43982252  0.49813950  0.50460058    -0.74400
C101        C  0.46420098  0.03158561  0.44666904     0.77300
C102        C  0.07559298  0.04000880  0.45237807     0.77800
C103        C  0.03396988  0.07715181  0.50943500     0.76800
C104        C  0.03803673  0.47024308  0.51410816     0.77200
C105        C  0.46621472  0.42694326  0.45430102     0.78300
C106        C  0.42870046  0.47063089  0.51210131     0.77400
C107        C  0.09875999  0.05152919  0.02700456    -0.03000
C108        C  0.11302373  0.08416018  0.03155539    -0.05600
C109        C  0.13908195  0.09841613  0.04396762    -0.20700
C110        C  0.15142460  0.08045615  0.05228062     0.25100
C111        C  0.13724060  0.04774645  0.04773471    -0.18200
C112        C  0.11111021  0.03344298  0.03524727    -0.08200
C113        C  0.17981616  0.09729844  0.06493437    -0.18500
C114        C  0.18951772  0.08260544  0.07727029    -0.23300
C115        C  0.21812097  0.10049385  0.08967224     0.27100
C116        C  0.22021456  0.08637029  0.10655224    -0.20000
C117        C  0.24685643  0.10263529  0.11850499    -0.09700
C118        C  0.27186744  0.13349480  0.11385868    -0.10200
C119        C  0.27013173  0.14715685  0.09672811    -0.03200
C120        C  0.24371068  0.13089791  0.08473414    -0.18300
H121        H  0.10416698  0.09883494  0.02545521     0.10800
H122        H  0.14964976  0.12367253  0.04709772     0.10900
H123        H  0.14649536  0.03319162  0.05342474     0.10500
H124        H  0.10067720  0.00825632  0.03199615     0.11700
H125        H  0.19246382  0.12323935  0.06452573     0.11700
H126        H  0.17539071  0.05688562  0.07909505     0.13700
H127        H  0.20118277  0.06268927  0.11050177     0.10200
H128        H  0.24813763  0.09080752  0.13118876     0.12300
H129        H  0.28928337  0.17041948  0.09246457     0.08900
H130        H  0.24385141  0.14207758  0.07146318     0.11600
C131        C  0.44954646  0.40190893  0.02683484    -0.03000
C132        C  0.41779165  0.38971039  0.03325618    -0.05600
C133        C  0.40458137  0.36520370  0.04664322    -0.20700
C134        C  0.42261747  0.35210456  0.05400472     0.25100
C135        C  0.45446496  0.36421529  0.04755251    -0.18200
C136        C  0.46773313  0.38885907  0.03413095    -0.08200
C137        C  0.40654953  0.32549052  0.06791711    -0.18500
C138        C  0.42033191  0.31032713  0.07637255    -0.23300
C139        C  0.40226207  0.28266944  0.08932505     0.27100
C140        C  0.41922009  0.27568139  0.10290161    -0.20000
C141        C  0.40289824  0.24949595  0.11505150    -0.09700
C142        C  0.36937919  0.22976364  0.11370038    -0.10200
C143        C  0.35244319  0.23642083  0.10007928    -0.03200
C144        C  0.36864860  0.26247045  0.08792833    -0.18300
H145        H  0.40307957  0.39921763  0.02802052     0.10800
H146        H  0.38000357  0.35639488  0.05124937     0.10900
H147        H  0.46936912  0.35493563  0.05265552     0.10500
H148        H  0.49234222  0.39782750  0.02956196     0.11700
H149        H  0.38175937  0.31813378  0.07139432     0.11700
H150        H  0.44561607  0.31841899  0.07419350     0.13700
H151        H  0.44512681  0.29055036  0.10412296     0.10200
H152        H  0.41640775  0.24437949  0.12535130     0.12300
H153        H  0.32660328  0.22162363  0.09893492     0.08900
H154        H  0.35474249  0.26620003  0.07725469     0.11600
C155        C  0.44989229  0.05201591  0.02442168    -0.03000
C156        C  0.47034405  0.08361629  0.03053521    -0.05600
C157        C  0.45919345  0.09847066  0.04282967    -0.20700
C158        C  0.42742248  0.08215378  0.04948207     0.25100
C159        C  0.40660416  0.05065749  0.04319066    -0.18200
C160        C  0.41780816  0.03570316  0.03079495    -0.08200
C161        C  0.41713219  0.09938799  0.06255391    -0.18500
C162        C  0.39216807  0.08480052  0.07461117    -0.23300
C163        C  0.38313793  0.10267765  0.08805215     0.27100
C164        C  0.36491487  0.08685058  0.10414569    -0.20000
C165        C  0.35532180  0.10264652  0.11688263    -0.09700
C166        C  0.36388917  0.13460225  0.11373491    -0.10200
C167        C  0.38205487  0.15048833  0.09769614    -0.03200
C168        C  0.39146009  0.13470501  0.08490790    -0.18300
H169        H  0.49519727  0.09696922  0.02592163     0.10800
H170        H  0.47564574  0.12279147  0.04732957     0.10900
H171        H  0.38165157  0.03763172  0.04757312     0.10500
H172        H  0.40141380  0.01141664  0.02624823     0.11700
H173        H  0.43224002  0.12521388  0.06300740     0.11700
H174        H  0.37884791  0.05888647  0.07544212     0.13700
H175        H  0.35790084  0.06212251  0.10679833     0.10200
H176        H  0.34064152  0.08973689  0.12895796     0.12300
H177        H  0.38862503  0.17507652  0.09492687     0.08900
H178        H  0.40446646  0.14753098  0.07239244     0.11600
C179        C  0.46976588  0.43859729  0.21079495    -0.03000
C180        C  0.44842923  0.43353801  0.19594634    -0.05600
C181        C  0.43454292  0.40495145  0.18564579    -0.20700
C182        C  0.44150261  0.38072919  0.19009851     0.25100
C183        C  0.46392914  0.38635687  0.20453813    -0.18200
C184        C  0.47791689  0.41504185  0.21475066    -0.08200
C185        C  0.42488324  0.35014381  0.17933191    -0.18500
C186        C  0.41955747  0.32186035  0.18624347    -0.23300
C187        C  0.40114528  0.29093771  0.17589533     0.27100
C188        C  0.40551894  0.26520831  0.18090108    -0.20000
C189        C  0.38892470  0.23588420  0.17135272    -0.09700
C190        C  0.36761637  0.23176971  0.15663204    -0.10200
C191        C  0.36208337  0.25691928  0.15218174    -0.03200
C192        C  0.37864136  0.28618499  0.16166445    -0.18300
H193        H  0.44163077  0.45116148  0.19270134     0.10800
H194        H  0.41759869  0.40138387  0.17448158     0.10900
H195        H  0.47092983  0.36887364  0.20792840     0.10500
H196        H  0.99500836  0.41880153  0.22585254     0.11700
H197        H  0.41566755  0.35104305  0.16548079     0.11700
H198        H  0.42888569  0.32102689  0.20007855     0.13700
H199        H  0.42227843  0.26799968  0.19200925     0.10200
H200        H  0.39343694  0.21674428  0.17508174     0.12300
H201        H  0.34499093  0.25395168  0.14125194     0.08900
H202        H  0.37331529  0.30472141  0.15791869     0.11600
C203        C  0.47524511  0.03866638  0.21058844    -0.03000
C204        C  0.45740687  0.02509847  0.19402171    -0.05600
C205        C  0.44499940  0.04113758  0.18362509    -0.20700
C206        C  0.44982503  0.07083855  0.18976219     0.25100
C207        C  0.46899363  0.08523590  0.20578329    -0.18200
C208        C  0.48208426  0.06955670  0.21588050    -0.08200
C209        C  0.43502904  0.08663376  0.17915361    -0.18500
C210        C  0.41885390  0.09908221  0.18793232    -0.23300
C211        C  0.40254477  0.11351564  0.17738111     0.27100
C212        C  0.37281407  0.10898848  0.18379690    -0.20000
C213        C  0.35664372  0.12167548  0.17369093    -0.09700
C214        C  0.37016662  0.13944660  0.15713355    -0.10200
C215        C  0.40086717  0.14559711  0.15143036    -0.03200
C216        C  0.41666333  0.13238631  0.16125723    -0.18300
H217        H  0.45229105  0.00175821  0.18934663     0.10800
H218        H  0.43071333  0.02987111  0.17111286     0.10900
H219        H  0.47391854  0.10863519  0.21042851     0.10500
H220        H  0.49700789  0.08131470  0.22809115     0.11700
H221        H  0.43521166  0.08570468  0.16379061     0.11700
H222        H  0.41573269  0.09672438  0.20319661     0.13700
H223        H  0.36171626  0.09491550  0.19637349     0.10200
H224        H  0.33326529  0.11694564  0.17855722     0.12300
H225        H  0.41259855  0.16045388  0.13922239     0.08900
H226        H  0.44009334  0.13725260  0.15637330     0.11600
C227        C  0.27107411  0.14025065  0.15671129    -0.03000
C228        C  0.25062919  0.15244843  0.15272734    -0.05600
C229        C  0.22040792  0.13938063  0.16131226    -0.20700
C230        C  0.20979241  0.11357834  0.17387744     0.25100
C231        C  0.23098768  0.10237383  0.17857731    -0.18200
C232        C  0.26146428  0.11574100  0.17008581    -0.08200
C233        C  0.17662533  0.09930086  0.18176462    -0.18500
C234        C  0.15936552  0.06875948  0.18770581    -0.23300
C235        C  0.12635526  0.05463961  0.19574950     0.27100
C236        C  0.11631355  0.02974889  0.20892734    -0.20000
C237        C  0.08614852  0.01675394  0.21756041    -0.09700
C238        C  0.06527228  0.02824102  0.21308568    -0.10200
C239        C  0.07435258  0.05181709  0.19913176    -0.03200
C240        C  0.10474755  0.06506981  0.19056051    -0.18300
H241        H  0.25776869  0.17156367  0.14253069     0.10800
H242        H  0.20484540  0.14880751  0.15765919     0.10900
H243        H  0.22416731  0.08330660  0.18872638     0.10500
H244        H  0.27695130  0.10609023  0.17336264     0.11700
H245        H  0.16585357  0.11440031  0.18217844     0.11700
H246        H  0.17005766  0.05360055  0.18732549     0.13700
H247        H  0.13223630  0.02092907  0.21295067     0.10200
H248        H  0.07930523  0.49809890  0.22804795     0.12300
H249        H  0.05838562  0.06070485  0.19535638     0.08900
H250        H  0.11119959  0.08339200  0.17993425     0.11600
C251        C  0.10452086  0.05579035  0.44015457    -0.03000
C252        C  0.13362020  0.08148288  0.44687850    -0.05600
C253        C  0.16031008  0.09710367  0.43485278    -0.20700
C254        C  0.15859102  0.08681508  0.41608881     0.25100
C255        C  0.12956018  0.06110983  0.40939096    -0.18200
C256        C  0.10281048  0.04586626  0.42126808    -0.08200
C257        C  0.18681571  0.10383873  0.40344089    -0.18500
C258        C  0.19400186  0.08838813  0.39019270    -0.23300
C259        C  0.22163880  0.10515481  0.37717802     0.27100
C260        C  0.23962341  0.09060467  0.37227453    -0.20000
C261        C  0.26582692  0.10591865  0.35999037    -0.09700
C262        C  0.27353105  0.13533980  0.35188056    -0.10200
C263        C  0.25529482  0.14972235  0.35639730    -0.03200
C264        C  0.22955610  0.13480442  0.36908932    -0.18300
H265        H  0.13557265  0.08986678  0.46130478     0.10800
H266        H  0.18239930  0.11708947  0.44023116     0.10900
H267        H  0.12727271  0.05320463  0.39483733     0.10500
H268        H  0.08070076  0.02630196  0.41560936     0.11700
H269        H  0.20269161  0.12936661  0.40554309     0.11700
H270        H  0.18016996  0.06243376  0.38946245     0.13700
H271        H  0.23374628  0.06767177  0.37825164     0.10200
H272        H  0.28001517  0.09478144  0.35668691     0.12300
H273        H  0.26126874  0.17259999  0.35029633     0.08900
H274        H  0.21559753  0.14617086  0.37237260     0.11600
C275        C  0.36851583  0.23138337  0.35218050    -0.03000
C276        C  0.40124891  0.25372364  0.34952824    -0.05600
C277        C  0.41719781  0.27945529  0.36199735    -0.20700
C278        C  0.40080068  0.28308370  0.37742248     0.25100
C279        C  0.36786570  0.26069952  0.37990922    -0.18200
C280        C  0.35201746  0.23492740  0.36748563    -0.08200
C281        C  0.41837971  0.31131112  0.38998012    -0.18500
C282        C  0.40851247  0.31311983  0.40757848    -0.23300
C283        C  0.42461748  0.34243800  0.41943422     0.27100
C284        C  0.41909456  0.33990987  0.43905391    -0.20000
C285        C  0.43279181  0.36722091  0.45053491    -0.09700
C286        C  0.45212457  0.39763805  0.44254591    -0.10200
C287        C  0.45744506  0.40012309  0.42289647    -0.03200
C288        C  0.44376973  0.37294406  0.41146871    -0.18300
H289        H  0.41455244  0.25097497  0.33799122     0.10800
H290        H  0.44247991  0.29644873  0.35967498     0.10900
H291        H  0.35400881  0.26317075  0.39117540     0.10500
H292        H  0.32672570  0.21784319  0.36970580     0.11700
H293        H  0.44062035  0.33103018  0.38450894     0.11700
H294        H  0.38810415  0.29228097  0.41378162     0.13700
H295        H  0.40405311  0.31673011  0.44550923     0.10200
H296        H  0.42803168  0.36453464  0.46560237     0.12300
H297        H  0.47191380  0.42320996  0.41622325     0.08900
H298        H  0.44765752  0.37622210  0.39637180     0.11600
C299        C  0.44974302  0.04260056  0.43219648    -0.03000
C300        C  0.44912024  0.03402605  0.41310037    -0.05600
C301        C  0.43633769  0.04506214  0.39926175    -0.20700
C302        C  0.42426565  0.06517272  0.40415642     0.25100
C303        C  0.42418643  0.07318301  0.42332616    -0.18200
C304        C  0.43686188  0.06204475  0.43718911    -0.08200
C305        C  0.41113628  0.07664082  0.38904121    -0.18500
C306        C  0.41073367  0.10418184  0.39053192    -0.23300
C307        C  0.39693159  0.11618852  0.37612373     0.27100
C308        C  0.40415166  0.14806226  0.37760307    -0.20000
C309        C  0.39040322  0.16022853  0.36522201    -0.09700
C310        C  0.36923391  0.14080746  0.35104325    -0.10200
C311        C  0.36188837  0.10894067  0.34936636    -0.03200
C312        C  0.37561450  0.09663934  0.36182023    -0.18300
H313        H  0.45858383  0.01880718  0.40880801     0.10800
H314        H  0.43626773  0.03820886  0.38464620     0.10900
H315        H  0.41395584  0.08764477  0.42774989     0.10500
H316        H  0.43673087  0.06881850  0.45179283     0.11700
H317        H  0.40298089  0.06262578  0.37614081     0.11700
H318        H  0.42178172  0.11932381  0.40280678     0.13700
H319        H  0.42024468  0.16356302  0.38853998     0.10200
H320        H  0.39616071  0.18485539  0.36677272     0.12300
H321        H  0.34497609  0.09344180  0.33873969     0.08900
H322        H  0.36862543  0.07170526  0.36049020     0.11600
C323        C  0.36592553  0.23373343  0.30925428    -0.03000
C324        C  0.39005841  0.24026346  0.29590148    -0.05600
C325        C  0.40646843  0.27027391  0.28716821    -0.20700
C326        C  0.39853526  0.29394806  0.29134608     0.25100
C327        C  0.37358835  0.28688873  0.30433652    -0.18200
C328        C  0.35744064  0.25703501  0.31316733    -0.08200
C329        C  0.41788759  0.32621515  0.28277924    -0.18500
C330        C  0.40650011  0.34633925  0.28008911    -0.23300
C331        C  0.42604084  0.37824665  0.27123499     0.27100
C332        C  0.41079522  0.39001716  0.25949022    -0.20000
C333        C  0.42875744  0.41937326  0.25029309    -0.09700
C334        C  0.46215248  0.43776875  0.25304889    -0.10200
C335        C  0.47728018  0.42682046  0.26544592    -0.03200
C336        C  0.45940894  0.39716277  0.27441066    -0.18300
H337        H  0.39709018  0.22263568  0.29283851     0.10800
H338        H  0.42569365  0.27517371  0.27729641     0.10900
H339        H  0.36727363  0.30469333  0.30827610     0.10500
H340        H  0.33886564  0.25237753  0.32347809     0.11700
H341        H  0.44194004  0.33309386  0.27780455     0.11700
H342        H  0.38144602  0.33844961  0.28318558     0.13700
H343        H  0.38508463  0.37603285  0.25700458     0.10200
H344        H  0.41671305  0.42759043  0.24079770     0.12300
H345        H  0.00301936  0.44063113  0.26765189     0.08900
H346        H  0.47167385  0.38906313  0.28379344     0.11600
C347        C  0.46830560  0.03297333  0.25372430    -0.03000
C348        C  0.48455748  0.05266976  0.26920466    -0.05600
C349        C  0.47092075  0.06793216  0.27925435    -0.20700
C350        C  0.44089084  0.06390977  0.27395668     0.25100
C351        C  0.42387733  0.04275622  0.25904685    -0.18200
C352        C  0.43743526  0.02735009  0.24910463    -0.08200
C353        C  0.42815802  0.08200123  0.28438652    -0.18500
C354        C  0.40672151  0.08928023  0.27698002    -0.23300
C355        C  0.39448334  0.10780558  0.28737217     0.27100
C356        C  0.36393690  0.10312697  0.28277810    -0.20000
C357        C  0.35098266  0.11903267  0.29282856    -0.09700
C358        C  0.36847645  0.14006106  0.30756308    -0.10200
C359        C  0.39985727  0.14637747  0.31135893    -0.03200
C360        C  0.41270726  0.13029110  0.30145216    -0.18300
H361        H  0.50825450  0.05706206  0.27313074     0.10800
H362        H  0.48428392  0.08364820  0.29088084     0.10900
H363        H  0.40008216  0.03784637  0.25504495     0.10500
H364        H  0.42404986  0.01142388  0.23756383     0.11700
H365        H  0.43758710  0.09030684  0.29849902     0.11700
H366        H  0.39712424  0.08095602  0.26290956     0.13700
H367        H  0.34966743  0.08639308  0.27175268     0.10200
H368        H  0.32684397  0.11403713  0.28955173     0.12300
H369        H  0.41426182  0.16341580  0.32221650     0.08900
H370        H  0.43691904  0.13569853  0.30479608     0.11600
C371        C  0.06258199  0.03224844  0.25558557    -0.03000
C372        C  0.06680742  0.01542479  0.27037828    -0.05600
C373        C  0.09595902  0.02905773  0.28034523    -0.20700
C374        C  0.12132355  0.05976597  0.27572936     0.25100
C375        C  0.11611343  0.07732057  0.26168791    -0.18200
C376        C  0.08705793  0.06367436  0.25176764    -0.08200
C377        C  0.15257193  0.07270738  0.28595107    -0.18500
C378        C  0.18075485  0.09665897  0.27922794    -0.23300
C379        C  0.21191136  0.10980263  0.28947695     0.27100
C380        C  0.23618178  0.14147425  0.28587501    -0.20000
C381        C  0.26558486  0.15499690  0.29553014    -0.09700
C382        C  0.27125910  0.13701488  0.30890597    -0.10200
C383        C  0.24769017  0.10490436  0.31187121    -0.03200
C384        C  0.21824814  0.09140535  0.30231263    -0.18300
H385        H  0.04810891  0.49135372  0.27375685     0.10800
H386        H  0.09902506  0.01522850  0.29135055     0.10900
H387        H  0.13422156  0.10159492  0.25826834     0.10500
H388        H  0.08387978  0.07748686  0.24080066     0.11700
H389        H  0.15222619  0.06164544  0.29936833     0.11700
H390        H  0.18130293  0.10784208  0.26584155     0.13700
H391        H  0.23210498  0.15601165  0.27584623     0.10200
H392        H  0.28356320  0.17974910  0.29293747     0.12300
H393        H  0.25207027  0.09021533  0.32158552     0.08900
H394        H  0.20078089  0.06652620  0.30485238     0.11600
C395        C  0.13239653  0.26984460  0.85023399    -0.03000
C396        C  0.14086439  0.24630352  0.84708569    -0.05600
C397        C  0.12819441  0.21908057  0.85855548    -0.20700
C398        C  0.10737718  0.21522556  0.87358572     0.25100
C399        C  0.09873633  0.23872130  0.87660442    -0.18200
C400        C  0.11133299  0.26582766  0.86511907    -0.08200
C401        C  0.09449148  0.18616926  0.88556889    -0.18500
C402        C  0.08592110  0.18563533  0.90379044    -0.23300
C403        C  0.07298405  0.15667138  0.91585320     0.27100
C404        C  0.07718210  0.16030858  0.93553641    -0.20000
C405        C  0.06480813  0.13353425  0.94736678    -0.09700
C406        C  0.04760705  0.10252730  0.93973419    -0.10200
C407        C  0.04310051  0.09893694  0.92002029    -0.03200
C408        C  0.05557246  0.12567876  0.90821052    -0.18300
H409        H  0.15759158  0.24917826  0.83592362     0.10800
H410        H  0.13509520  0.20124445  0.85589402     0.10900
H411        H  0.08196494  0.23610258  0.88766045     0.10500
H412        H  0.10445582  0.28361148  0.86783807     0.11700
H413        H  0.09364195  0.16514174  0.87943781     0.11700
H414        H  0.08992538  0.20758477  0.91047213     0.13700
H415        H  0.09027878  0.18396028  0.94176793     0.10200
H416        H  0.06868549  0.13713826  0.96247958     0.12300
H417        H  0.02975554  0.07540589  0.91367261     0.08900
H418        H  0.05096680  0.12196094  0.89317023     0.11600
C419        C  0.40210872  0.44458508  0.93723709    -0.03000
C420        C  0.40865322  0.44311263  0.91796916    -0.05600
C421        C  0.38373582  0.42908447  0.90481749    -0.20700
C422        C  0.35163099  0.41637679  0.91048815     0.25100
C423        C  0.34483665  0.41703332  0.92985324    -0.18200
C424        C  0.36989646  0.43107912  0.94309325    -0.08200
C425        C  0.32627607  0.40253934  0.89568595    -0.18500
C426        C  0.29681046  0.39907725  0.89772148    -0.23300
C427        C  0.27212531  0.38707434  0.88247958     0.27100
C428        C  0.24632789  0.39284088  0.88412714    -0.20000
C429        C  0.22221051  0.38166783  0.87040153    -0.09700
C430        C  0.22339867  0.36451128  0.85470709    -0.10200
C431        C  0.24901879  0.35854501  0.85295766    -0.03200
C432        C  0.27314696  0.36960353  0.86673812    -0.18300
H433        H  0.43316038  0.45300958  0.91295088     0.10800
H434        H  0.38965608  0.42861474  0.89005956     0.10900
H435        H  0.32033420  0.40654613  0.93490835     0.10500
H436        H  0.36407224  0.43158870  0.95785488     0.11700
H437        H  0.33320096  0.39715990  0.88216877     0.11700
H438        H  0.29092428  0.40702265  0.91071290     0.13700
H439        H  0.24477579  0.40600716  0.89611793     0.10200
H440        H  0.20250512  0.38634395  0.87208184     0.12300
H441        H  0.24983638  0.34449726  0.84123634     0.08900
H442        H  0.29188366  0.36358494  0.86516685     0.11600
C443        C  0.06116673  0.46270815  0.93887278    -0.03000
C444        C  0.07262060  0.47921028  0.92166601    -0.05600
C445        C  0.08751314  0.46947627  0.90840307    -0.20700
C446        C  0.09073280  0.44269163  0.91187092     0.25100
C447        C  0.08049964  0.42690294  0.92941624    -0.18200
C448        C  0.06594976  0.43695287  0.94284836    -0.08200
C449        C  0.10461660  0.43183980  0.89681084    -0.18500
C450        C  0.09590630  0.40091510  0.89443830    -0.23300
C451        C  0.10795715  0.38910648  0.87882864     0.27100
C452        C  0.09006670  0.35659795  0.87393073    -0.20000
C453        C  0.10133775  0.34390867  0.86014566    -0.09700
C454        C  0.13069092  0.36350194  0.85104409    -0.10200
C455        C  0.14845277  0.39608550  0.85553598    -0.03200
C456        C  0.13724944  0.40887226  0.86936852    -0.18300
H457        H  0.06973564  0.49951440  0.91834895     0.10800
H458        H  0.09564213  0.48231732  0.89513647     0.10900
H459        H  0.08364633  0.40680161  0.93278678     0.10500
H460        H  0.05760231  0.42403109  0.95606681     0.11700
H461        H  0.12026850  0.44947523  0.88652545     0.11700
H462        H  0.07778614  0.38308193  0.90374045     0.13700
H463        H  0.06751042  0.34085846  0.88099946     0.10200
H464        H  0.08744132  0.31867364  0.85680517     0.12300
H465        H  0.17160249  0.41126536  0.84890862     0.08900
H466        H  0.15222170  0.43381930  0.87307761     0.11600
C467        C  0.43529585  0.46918901  0.75263387    -0.03000
C468        C  0.42741843  0.44254897  0.76402918    -0.05600
C469        C  0.39767182  0.42657838  0.77332808    -0.20700
C470        C  0.37530027  0.43710738  0.77166341     0.25100
C471        C  0.38356194  0.46436636  0.76055211    -0.18200
C472        C  0.41328021  0.48017475  0.75109269    -0.08200
C473        C  0.34293232  0.41765206  0.78058665    -0.18500
C474        C  0.32344262  0.42917355  0.78537621    -0.23300
C475        C  0.29121502  0.40901185  0.79429265     0.27100
C476        C  0.27945479  0.42318539  0.80695334    -0.20000
C477        C  0.24946055  0.40485863  0.81572511    -0.09700
C478        C  0.23031794  0.37207373  0.81174590    -0.10200
C479        C  0.24142688  0.35802391  0.79861913    -0.03200
C480        C  0.27168739  0.37623854  0.79004422    -0.18300
H481        H  0.44343812  0.43301846  0.76491978     0.10800
H482        H  0.39186065  0.40547429  0.78157981     0.10900
H483        H  0.36673183  0.47280001  0.75851890     0.10500
H484        H  0.41878021  0.50048334  0.74215604     0.11700
H485        H  0.33540071  0.39296583  0.78399217     0.11700
H486        H  0.33196466  0.45451520  0.78374559     0.13700
H487        H  0.29377198  0.44840687  0.81031276     0.10200
H488        H  0.24116554  0.41624027  0.82568368     0.12300
H489        H  0.22703719  0.33282773  0.79532691     0.08900
H490        H  0.27957211  0.36471433  0.77995132     0.11600
C491        C  0.13460679  0.36750910  0.80803746    -0.03000
C492        C  0.15454815  0.39137319  0.79517087    -0.05600
C493        C  0.14309276  0.40887993  0.78537724    -0.20700
C494        C  0.11156656  0.40291328  0.78832485     0.25100
C495        C  0.09119332  0.37792095  0.80059112    -0.18200
C496        C  0.10264563  0.36047025  0.81033735    -0.08200
C497        C  0.10037095  0.42244413  0.77800850    -0.18500
C498        C  0.07699453  0.42766382  0.78465137    -0.23300
C499        C  0.06387717  0.44540477  0.77416836     0.27100
C500        C  0.03327985  0.44018387  0.77918526    -0.20000
C501        C  0.01890227  0.45456214  0.76903073    -0.09700
C502        C  0.03474053  0.47440132  0.75353882    -0.10200
C503        C  0.06632508  0.48155508  0.74934355    -0.03200
C504        C  0.08071668  0.46708299  0.75945099    -0.18300
H505        H  0.17925557  0.39710303  0.79313241     0.10800
H506        H  0.15912107  0.42761977  0.77578184     0.10900
H507        H  0.06631808  0.37151993  0.80258246     0.10500
H508        H  0.08652428  0.34147272  0.81975112     0.11700
H509        H  0.11203655  0.43284325  0.76464285     0.11700
H510        H  0.06589388  0.41745803  0.79818564     0.13700
H511        H  0.01997970  0.42415419  0.79070479     0.10200
H512        H  0.49504842  0.44933355  0.77295187     0.12300
H513        H  0.07965131  0.99787079  0.73794288     0.08900
H514        H  0.10490532  0.47298312  0.75564652     0.11600
C515        C  0.13359750  0.27200880  0.80697276    -0.03000
C516        C  0.15147791  0.26760512  0.79281569    -0.05600
C517        C  0.13818423  0.23874253  0.78275350    -0.20700
C518        C  0.10680388  0.21376887  0.78667515     0.25100
C519        C  0.08831650  0.21899524  0.80016264    -0.18200
C520        C  0.10157931  0.24784406  0.81013467    -0.08200
C521        C  0.09406340  0.18299365  0.77618594    -0.18500
C522        C  0.07013534  0.15473340  0.78274352    -0.23300
C523        C  0.05714740  0.12389146  0.77228025     0.27100
C524        C  0.02616148  0.09869978  0.77680572    -0.20000
C525        C  0.01264128  0.06962831  0.76695699    -0.09700
C526        C  0.02990446  0.06523320  0.75240677    -0.10200
C527        C  0.06141105  0.08976983  0.74843034    -0.03200
C528        C  0.07492903  0.11880106  0.75822629    -0.18300
H529        H  0.17605992  0.28598473  0.79000225     0.10800
H530        H  0.15276650  0.23559718  0.77220168     0.10900
H531        H  0.06358448  0.20105577  0.80302309     0.10500
H532        H  0.08697459  0.25110633  0.82061380     0.11700
H533        H  0.10537450  0.18387753  0.76273374     0.11700
H534        H  0.05897548  0.15394771  0.79624240     0.13700
H535        H  0.01209794  0.10176369  0.78774506     0.10200
H536        H  0.48837906  0.05091314  0.77032826     0.12300
H537        H  0.07552594  0.08650050  0.73761787     0.08900
H538        H  0.09934534  0.13691152  0.75481888     0.11600
C539        C  0.04693159  0.10619047  0.52128470    -0.03000
C540        C  0.03486641  0.12726185  0.51967508    -0.05600
C541        C  0.04725534  0.15468272  0.53098978    -0.20700
C542        C  0.07108305  0.16084811  0.54446710     0.25100
C543        C  0.08315492  0.13984759  0.54611375    -0.18200
C544        C  0.07140197  0.11291655  0.53449498    -0.08200
C545        C  0.08391186  0.18972149  0.55641277    -0.18500
C546        C  0.08773907  0.18840258  0.57514345    -0.23300
C547        C  0.10206469  0.21731670  0.58712232     0.27100
C548        C  0.08872385  0.21647593  0.60488858    -0.20000
C549        C  0.10267568  0.24343084  0.61660700    -0.09700
C550        C  0.13131578  0.27116709  0.61122185    -0.10200
C551        C  0.14434053  0.27183223  0.59326186    -0.03200
C552        C  0.12978441  0.24530301  0.58129712    -0.18300
H553        H  0.01612444  0.12272119  0.50953975     0.10800
H554        H  0.03787235  0.17080689  0.52946273     0.10900
H555        H  0.10198861  0.14453648  0.55621724     0.10500
H556        H  0.08115299  0.09710756  0.53603952     0.11700
H557        H  0.08920120  0.21216738  0.54984671     0.11700
H558        H  0.07928949  0.16538377  0.58194888     0.13700
H559        H  0.06713844  0.19512763  0.60953868     0.10200
H560        H  0.09076313  0.24249480  0.62976881     0.12300
H561        H  0.16600983  0.29266519  0.58838010     0.08900
H562        H  0.14071422  0.24635499  0.56769730     0.11600
C563        C  0.40125176  0.45904875  0.52541692    -0.03000
C564        C  0.38472676  0.47598749  0.52780316    -0.05600
C565        C  0.35994028  0.46597232  0.54110560    -0.20700
C566        C  0.35100069  0.43876558  0.55223328     0.25100
C567        C  0.36768366  0.42191110  0.54993176    -0.18200
C568        C  0.39233637  0.43181653  0.53656842    -0.08200
C569        C  0.32466619  0.42906742  0.56629766    -0.18500
C570        C  0.30672195  0.39876601  0.57246533    -0.23300
C571        C  0.27933489  0.38766959  0.58590280     0.27100
C572        C  0.25831345  0.35458803  0.58755273    -0.20000
C573        C  0.23214073  0.34257261  0.59987174    -0.09700
C574        C  0.22654891  0.36335933  0.61090191    -0.10200
C575        C  0.24760015  0.39641569  0.60965147    -0.03200
C576        C  0.27391675  0.40858223  0.59725376    -0.18300
H577        H  0.39107240  0.49713397  0.51947310     0.10800
H578        H  0.34762918  0.47948354  0.54267033     0.10900
H579        H  0.36238703  0.40150493  0.55867958     0.10500
H580        H  0.40490761  0.41852334  0.53528574     0.11700
H581        H  0.31891037  0.44711676  0.57072464     0.11700
H582        H  0.31107466  0.38048487  0.56663654     0.13700
H583        H  0.26212516  0.33790181  0.57924907     0.10200
H584        H  0.21671484  0.31695809  0.60117684     0.12300
H585        H  0.24361172  0.41269741  0.61824463     0.08900
H586        H  0.28995147  0.43416699  0.59685913     0.11600
C587        C  0.13247315  0.36469730  0.61372307    -0.03000
C588        C  0.10048485  0.35668712  0.61717712    -0.05600
C589        C  0.08552807  0.36887043  0.60562075    -0.20700
C590        C  0.10220896  0.38914418  0.59038547     0.25100
C591        C  0.13426272  0.39691503  0.58693942    -0.18200
C592        C  0.14918333  0.38484187  0.59853669    -0.08200
C593        C  0.08487182  0.40015789  0.57781125    -0.18500
C594        C  0.09998847  0.42533886  0.56604517    -0.23300
C595        C  0.08304690  0.43584514  0.55285276     0.27100
C596        C  0.09996903  0.46713995  0.54578126    -0.20000
C597        C  0.08539321  0.47814089  0.53314094    -0.09700
C598        C  0.05349953  0.45799433  0.52714978    -0.10200
C599        C  0.03664498  0.42640633  0.53393474    -0.03200
C600        C  0.05128726  0.41536652  0.54660727    -0.18300
H601        H  0.08693335  0.34058853  0.62860098     0.10800
H602        H  0.06073768  0.36216838  0.60846471     0.10900
H603        H  0.14775768  0.41148956  0.57502499     0.10500
H604        H  0.17379965  0.39104199  0.59555319     0.11700
H605        H  0.05878279  0.38741198  0.57868362     0.11700
H606        H  0.12603091  0.43989078  0.56645752     0.13700
H607        H  0.12456588  0.48328011  0.55016225     0.10200
H608        H  0.09921039  0.00255928  0.52809506     0.12300
H609        H  0.01215591  0.41017723  0.52943211     0.08900
H610        H  0.03779145  0.39072469  0.55118103     0.11600
C611        C  0.13761623  0.26976780  0.65447547    -0.03000
C612        C  0.15103842  0.25026828  0.65107427    -0.05600
C613        C  0.13796843  0.22021894  0.65962231    -0.20700
C614        C  0.11095894  0.20888135  0.67150955     0.25100
C615        C  0.09856611  0.22919988  0.67565236    -0.18200
C616        C  0.11194431  0.25947375  0.66725337    -0.08200
C617        C  0.09670888  0.17593720  0.67935426    -0.18500
C618        C  0.06544089  0.15785894  0.68428162    -0.23300
C619        C  0.05133409  0.12500632  0.69228321     0.27100
C620        C  0.02429659  0.11366646  0.70413543    -0.20000
C621        C  0.01156146  0.08386012  0.71295873    -0.09700
C622        C  0.02535874  0.06456294  0.70993542    -0.10200
C623        C  0.05113429  0.07489572  0.69723054    -0.03200
C624        C  0.06409068  0.10488056  0.68847879    -0.18300
H625        H  0.17102626  0.25795149  0.64133032     0.10800
H626        H  0.14832025  0.20532123  0.65643311     0.10900
H627        H  0.07851830  0.22180652  0.68527403     0.10500
H628        H  0.10128125  0.27417611  0.67003915     0.11700
H629        H  0.11257115  0.16608817  0.68060352     0.11700
H630        H  0.04958862  0.16772863  0.68303265     0.13700
H631        H  0.01366295  0.12839092  0.70709430     0.10200
H632        H  0.49147324  0.07620356  0.72262325     0.12300
H633        H  0.06214812  0.06044848  0.69470933     0.08900
H634        H  0.08416040  0.11222604  0.67888234     0.11600
C635        C  0.43585823  0.46596051  0.70962688    -0.03000
C636        C  0.43205622  0.48071822  0.69351354    -0.05600
C637        C  0.40373300  0.46520387  0.68277447    -0.20700
C638        C  0.37852730  0.43500055  0.68819545     0.25100
C639        C  0.38272497  0.41977260  0.70392690    -0.18200
C640        C  0.41132849  0.43488039  0.71432518    -0.08200
C641        C  0.34822148  0.41943466  0.67713057    -0.18500
C642        C  0.31913976  0.40477828  0.68556588    -0.23300
C643        C  0.28866528  0.39021468  0.67465741     0.27100
C644        C  0.26289207  0.39372183  0.68103430    -0.20000
C645        C  0.23403935  0.38045905  0.67078963    -0.09700
C646        C  0.23021101  0.36284410  0.65421036    -0.10200
C647        C  0.25549875  0.35792791  0.64845384    -0.03200
C648        C  0.28463052  0.37195951  0.65835293    -0.18300
H649        H  0.45068922  0.50451916  0.68946534     0.10800
H650        H  0.40110398  0.47716617  0.67053213     0.10900
H651        H  0.36404143  0.39602204  0.70802102     0.10500
H652        H  0.41421463  0.42221226  0.72607159     0.11700
H653        H  0.34979463  0.42201606  0.66182917     0.11700
H654        H  0.31766612  0.40531185  0.70090149     0.13700
H655        H  0.26537567  0.40736092  0.69373328     0.10200
H656        H  0.21490507  0.38441051  0.67566490     0.12300
H657        H  0.25274549  0.34294765  0.63641573     0.08900
H658        H  0.30374329  0.36794541  0.65351286     0.11600
C659        C  0.03189849  0.47033471  0.71031850    -0.03000
C660        C  0.05246357  0.48659766  0.69513212    -0.05600
C661        C  0.06821054  0.47311123  0.68537597    -0.20700
C662        C  0.06376004  0.44310175  0.69061157     0.25100
C663        C  0.04168638  0.42603942  0.70516533    -0.18200
C664        C  0.02582122  0.43946646  0.71480643    -0.08200
C665        C  0.08204272  0.43026979  0.68032384    -0.18500
C666        C  0.08794126  0.40779202  0.68746820    -0.23300
C667        C  0.10581317  0.39467049  0.67705845     0.27100
C668        C  0.10011378  0.36399227  0.68173744    -0.20000
C669        C  0.11523619  0.35013050  0.67171704    -0.09700
C670        C  0.13639806  0.36671503  0.65683982    -0.10200
C671        C  0.14373266  0.39817748  0.65292797    -0.03200
C672        C  0.12852584  0.41200167  0.66285236    -0.18300
H673        H  0.05715019  0.51014117  0.69117324     0.10800
H674        H  0.08454683  0.48652994  0.67398059     0.10900
H675        H  0.03631804  0.40225701  0.70910271     0.10500
H676        H  0.00914454  0.42592210  0.72603390     0.11700
H677        H  0.09131154  0.44021870  0.66644197     0.11700
H678        H  0.07868486  0.39777197  0.70132971     0.13700
H679        H  0.08317815  0.35032494  0.69283660     0.09200
H680        H  0.10947306  0.32603482  0.67513925     0.12300
H681        H  0.16079549  0.41184785  0.64188584     0.08900
H682        H  0.13473787  0.43621554  0.65937092     0.11600
C683        C  0.16609128  0.83291922  0.65242898     0.45700
H684        H  0.16681541  0.83228036  0.66812661    -0.03400
C685        C  0.16426891  0.83389233  0.61564194     0.45700
H686        H  0.16355302  0.83483901  0.59996944    -0.03400
C687        C  0.14921271  0.85055390  0.64460273    -0.17000
C688        C  0.19976794  0.84958522  0.64308909    -0.16800
C689        C  0.14852322  0.79937723  0.64328892    -0.17200
C690        C  0.14820316  0.85073550  0.62517859    -0.17200
C691        C  0.19844511  0.84997883  0.62366066    -0.16700
C692        C  0.14721035  0.79990084  0.62379936    -0.17000
C693        C  0.16634283  0.83547514  0.81144046     0.45700
H694        H  0.16832400  0.83691313  0.79576402    -0.03400
C695        C  0.16141627  0.83224761  0.84817442     0.45700
H696        H  0.15942379  0.83099001  0.86386140    -0.03400
C697        C  0.19913113  0.85250920  0.82174622    -0.17000
C698        C  0.14753247  0.85097765  0.81971468    -0.16800
C699        C  0.14868248  0.80087471  0.81924807    -0.17200
C700        C  0.19625129  0.85059776  0.84112175    -0.17200
C701        C  0.14501598  0.84894023  0.83906795    -0.16700
C702        C  0.14655948  0.79948595  0.83868443    -0.17000
C703        C  0.99946346  0.50143750  0.71289941     0.45700
H704        H  0.99960581  0.50118964  0.69718003    -0.03400
C705        C  0.99903855  0.50190635  0.74982796     0.45700
H706        H  0.49893110  0.50233452  0.76554663    -0.03400
C707        C  0.01763616  0.98597101  0.72189312    -0.17000
C708        C  0.01462765  0.53520608  0.72147936    -0.16800
C709        C  0.46536293  0.98303966  0.72152858    -0.17200
C710        C  0.01775416  0.98658992  0.74141680    -0.17200
C711        C  0.01483108  0.53543026  0.74092810    -0.16700
C712        C  0.46517333  0.98361362  0.74101507    -0.17000
C713        C  0.33519298  0.67022460  0.31123741     0.45700
H714        H  0.33496580  0.67068823  0.29551928    -0.03400
C715        C  0.33576095  0.66938063  0.34808358     0.45700
H716        H  0.33584020  0.66887933  0.36381740    -0.03400
C717        C  0.30136127  0.65219640  0.32021243    -0.17000
C718        C  0.35321432  0.65403316  0.31954832    -0.16800
C719        C  0.35155097  0.70373120  0.32036415    -0.17200
C720        C  0.30201262  0.65179388  0.33961141    -0.17200
C721        C  0.35344175  0.65384807  0.33901655    -0.16700
C722        C  0.35185080  0.70304773  0.33978691    -0.17000
C723        C  0.33482123  0.66756227  0.11743971     0.45700
H724        H  0.33493977  0.66731333  0.10172497    -0.03400
C725        C  0.33505193  0.66811859  0.15429823     0.45700
H726        H  0.33504324  0.66858905  0.17001511    -0.03400
C727        C  0.30101961  0.65060671  0.12603352    -0.17000
C728        C  0.35155630  0.65078111  0.12612689    -0.16800
C729        C  0.35207659  0.70123279  0.12591335    -0.17200
C730        C  0.30095708  0.65133525  0.14549140    -0.17200
C731        C  0.35227246  0.65127502  0.14561460    -0.16700
C732        C  0.35218525  0.70176761  0.14534359    -0.17000
C733        C  0.00175614  0.50194017  0.21427886     0.45700
H734        H  0.00319647  0.50238913  0.19858035    -0.03400
C735        C  0.99907658  0.50068106  0.25120645     0.45700
H736        H  0.99776864  0.49999763  0.26691480    -0.03400
C737        C  0.48591029  0.52028130  0.22260843    -0.17000
C738        C  0.48289313  0.96797430  0.22258508    -0.16800
C739        C  0.03490049  0.51679957  0.22388190    -0.17200
C740        C  0.48404904  0.51902691  0.24211016    -0.17200
C741        C  0.48128571  0.96742457  0.24198867    -0.16700
C742        C  0.03354750  0.51667474  0.24333409    -0.17000
Zn743      Zn  0.00140735  0.50215642  0.95503577     1.49700
Zn744      Zn  0.02207953  0.54476284  0.99120364     1.49400
Zn745      Zn  0.45486298  0.97812136  0.99090777     1.49100
Zn746      Zn  0.02253815  0.97842702  0.99153365     1.49500
O747        O  0.00006803  0.50059562  0.98239759    -1.83900
O748        O  0.01963071  0.54634791  0.94462063    -0.74500
O749        O  0.49222147  0.55255703  0.00692409    -0.74400
O750        O  0.42385683  0.96000428  0.96853558    -0.73900
O751        O  0.03822964  0.57727196  0.96996528    -0.74600
O752        O  0.45761500  0.97556021  0.94416894    -0.74200
O753        O  0.44486045  0.50761954  0.00646269    -0.74700
O754        O  0.49265453  0.93983332  0.00745123    -0.74100
O755        O  0.05930037  0.55346736  0.00780710    -0.74900
O756        O  0.44716683  0.94147019  0.00799853    -0.74300
O757        O  0.05946047  0.50762010  0.00876971    -0.74700
O758        O  0.04154741  0.96559040  0.96959401    -0.74700
O759        O  0.02924938  0.98608759  0.94503533    -0.74400
C760        C  0.03447110  0.57396690  0.95210933     0.77300
C761        C  0.46280356  0.53649414  0.01186791     0.77800
C762        C  0.42913678  0.96076590  0.95077802     0.76800
C763        C  0.46383274  0.92898458  0.01325956     0.77200
C764        C  0.07111251  0.53670360  0.01380422     0.78300
C765        C  0.04310278  0.97186622  0.95195194     0.77400
Zn766      Zn  0.47770852  0.52509121  0.48768696     1.49700
Zn767      Zn  0.00304133  0.49920534  0.45439084     1.49400
Zn768      Zn  0.04497380  0.52663348  0.49131053     1.49100
Zn769      Zn  0.47862333  0.95928875  0.49259392     1.49500
O770        O  0.00097455  0.50247740  0.48164500    -1.83900
O771        O  0.46149934  0.53622794  0.46416490    -0.74500
O772        O  0.04829695  0.52252809  0.44467753    -0.74400
O773        O  0.05083716  0.56387065  0.50695794    -0.73900
O774        O  0.47940817  0.51773354  0.44126020    -0.74600
O775        O  0.00607957  0.56576588  0.50209793    -0.74200
O776        O  0.07819843  0.54432921  0.47024257    -0.74700
O777        O  0.00868423  0.95232591  0.50938272    -0.74100
O778        O  0.48240956  0.95382905  0.44611147    -0.74900
O779        O  0.05451147  0.99880514  0.50797947    -0.74300
O780        O  0.46185941  0.92506534  0.47216683    -0.74700
O781        O  0.44123783  0.95327283  0.50874463    -0.74700
O782        O  0.43984643  0.99814556  0.50460330    -0.74400
C783        C  0.46420455  0.53158533  0.44667061     0.77300
C784        C  0.07559429  0.54002355  0.45239181     0.77800
C785        C  0.03394871  0.57715771  0.50943063     0.76800
C786        C  0.03807520  0.97024696  0.51409584     0.77200
C787        C  0.46622225  0.92694233  0.45430449     0.78300
C788        C  0.42872646  0.97064005  0.51210810     0.77400
C789        C  0.09879848  0.55152672  0.02698540    -0.03000
C790        C  0.11309095  0.58416867  0.03151284    -0.05600
C791        C  0.13915201  0.59842823  0.04392230    -0.20700
C792        C  0.15146841  0.58046113  0.05225624     0.25100
C793        C  0.13725650  0.54774013  0.04773345    -0.18200
C794        C  0.11112349  0.53343290  0.03524790    -0.08200
C795        C  0.17986204  0.59730646  0.06490772    -0.18500
C796        C  0.18952870  0.58261879  0.07726961    -0.23300
C797        C  0.21813002  0.60050594  0.08967370     0.27100
C798        C  0.22020205  0.58639165  0.10656297    -0.20000
C799        C  0.24684207  0.60265038  0.11851756    -0.09700
C800        C  0.27187209  0.63349733  0.11386571    -0.10200
C801        C  0.27015553  0.64715204  0.09672734    -0.03200
C802        C  0.24373792  0.63089684  0.08473020    -0.18300
H803        H  0.10425437  0.59884926  0.02539645     0.10800
H804        H  0.14974177  0.62369289  0.04703448     0.10900
H805        H  0.14649147  0.53317915  0.05344050     0.10500
H806        H  0.10066726  0.50823733  0.03201491     0.11700
H807        H  0.19253741  0.62324660  0.06447582     0.11700
H808        H  0.17537177  0.55690478  0.07911409     0.13700
H809        H  0.20115587  0.56272072  0.11051761     0.10200
H810        H  0.24810668  0.59082537  0.13120685     0.12300
H811        H  0.28932021  0.67040576  0.09245961     0.08900
H812        H  0.24389663  0.64206946  0.07145317     0.11600
C813        C  0.44955349  0.90191873  0.02685126    -0.03000
C814        C  0.41781073  0.88974199  0.03328954    -0.05600
C815        C  0.40460578  0.86524198  0.04668113    -0.20700
C816        C  0.42263431  0.85212600  0.05403065     0.25100
C817        C  0.45447246  0.86421980  0.04756515    -0.18200
C818        C  0.46773585  0.88885785  0.03413902    -0.08200
C819        C  0.40656573  0.82550970  0.06794263    -0.18500
C820        C  0.42033868  0.81032615  0.07638485    -0.23300
C821        C  0.40226737  0.78266588  0.08933629     0.27100
C822        C  0.41922803  0.77566017  0.10290169    -0.20000
C823        C  0.40290619  0.74947348  0.11505077    -0.09700
C824        C  0.36938439  0.72975552  0.11370922    -0.10200
C825        C  0.35244458  0.73642787  0.10009831    -0.03200
C826        C  0.36865010  0.76248127  0.08794912    -0.18300
H827        H  0.40310295  0.89926001  0.02806274     0.10800
H828        H  0.38003633  0.85644897  0.05129864     0.10900
H829        H  0.46937170  0.85492916  0.05266015     0.10500
H830        H  0.49233673  0.89781109  0.02955853     0.11700
H831        H  0.38178214  0.81816614  0.07142959     0.11700
H832        H  0.44561735  0.81840325  0.07419535     0.13700
H833        H  0.44513713  0.79051706  0.10411536     0.10200
H834        H  0.41641770  0.74434451  0.12534244     0.12300
H835        H  0.32660212  0.72163920  0.09896079     0.08900
H836        H  0.35474127  0.76622511  0.07728397     0.11600
C837        C  0.44994982  0.55203584  0.02443860    -0.03000
C838        C  0.47039908  0.58364024  0.03054643    -0.05600
C839        C  0.45925193  0.59849216  0.04284610    -0.20700
C840        C  0.42748689  0.58216913  0.04950908     0.25100
C841        C  0.40667284  0.55066702  0.04322481    -0.18200
C842        C  0.41787345  0.53571547  0.03082481    -0.08200
C843        C  0.41719652  0.59940326  0.06258247    -0.18500
C844        C  0.39222223  0.58481613  0.07463333    -0.23300
C845        C  0.38318302  0.60269007  0.08807158     0.27100
C846        C  0.36494060  0.58685423  0.10415780    -0.20000
C847        C  0.35533445  0.60264353  0.11689131    -0.09700
C848        C  0.36390483  0.63460051  0.11374667    -0.10200
C849        C  0.38208973  0.65049619  0.09771530    -0.03200
C850        C  0.39151149  0.63472028  0.08493120    -0.18300
H851        H  0.49524671  0.59699856  0.02592324     0.10800
H852        H  0.47570156  0.62281705  0.04734023     0.10900
H853        H  0.38172466  0.53763360  0.04761475     0.10500
H854        H  0.40148128  0.51142483  0.02628394     0.11700
H855        H  0.43230704  0.62522871  0.06303942     0.11700
H856        H  0.37889554  0.55890209  0.07546076     0.13700
H857        H  0.35792177  0.56212418  0.10680748     0.10200
H858        H  0.34064193  0.58972802  0.12896159     0.12300
H859        H  0.38866328  0.67508618  0.09494920     0.08900
H860        H  0.40453484  0.64755358  0.07242154     0.11600
C861        C  0.46977487  0.93859060  0.21078260    -0.03000
C862        C  0.44844306  0.93352603  0.19593020    -0.05600
C863        C  0.43456377  0.90493760  0.18563180    -0.20700
C864        C  0.44152577  0.88071925  0.19009070     0.25100
C865        C  0.46394966  0.88635295  0.20453268    -0.18200
C866        C  0.47793125  0.91504010  0.21474266    -0.08200
C867        C  0.42490993  0.85013028  0.17932872    -0.18500
C868        C  0.41957024  0.82184789  0.18624987    -0.23300
C869        C  0.40115472  0.79092359  0.17590501     0.27100
C870        C  0.40552952  0.76519463  0.18090950    -0.20000
C871        C  0.38893429  0.73587145  0.17136048    -0.09700
C872        C  0.36762417  0.73175868  0.15664109    -0.10200
C873        C  0.36208807  0.75690673  0.15219364    -0.03200
C874        C  0.37864661  0.78617097  0.16167704    -0.18300
H875        H  0.44164129  0.95114554  0.19268117     0.10800
H876        H  0.41762147  0.90136455  0.17446523     0.10900
H877        H  0.47095109  0.86887164  0.20792719     0.10500
H878        H  0.99502121  0.91880516  0.22585067     0.11700
H879        H  0.41570544  0.85102504  0.16547306     0.11700
H880        H  0.42888849  0.82101758  0.20008887     0.13700
H881        H  0.42229149  0.76798630  0.19201621     0.10200
H882        H  0.39344729  0.71673129  0.17508761     0.12300
H883        H  0.34499284  0.75393903  0.14126566     0.08900
H884        H  0.37331872  0.80470731  0.15793407     0.11600
C885        C  0.47527752  0.53868960  0.21058861    -0.03000
C886        C  0.45744800  0.52512896  0.19401822    -0.05600
C887        C  0.44504303  0.54117139  0.18362266    -0.20700
C888        C  0.44986324  0.57086828  0.18976426     0.25100
C889        C  0.46902743  0.58526050  0.20578748    -0.18200
C890        C  0.48211597  0.56957860  0.21588339    -0.08200
C891        C  0.43506403  0.58666336  0.17915903    -0.18500
C892        C  0.41889614  0.59911643  0.18794117    -0.23300
C893        C  0.40257915  0.61354331  0.17739231     0.27100
C894        C  0.37284551  0.60900650  0.18380938    -0.20000
C895        C  0.35666476  0.62168145  0.17370266    -0.09700
C896        C  0.37018061  0.63945021  0.15714367    -0.10200
C897        C  0.40088502  0.64561278  0.15144022    -0.03200
C898        C  0.41669127  0.63241344  0.16126757    -0.18300
H899        H  0.45233570  0.50179127  0.18933976     0.10800
H900        H  0.43076161  0.52990972  0.17110819     0.10900
H901        H  0.47394955  0.60865738  0.21043587     0.10500
H902        H  0.49703577  0.58133276  0.22809598     0.11700
H903        H  0.43523620  0.58572897  0.16379597     0.11700
H904        H  0.41578378  0.59676407  0.20320610     0.13700
H905        H  0.36175305  0.59493397  0.19638687     0.10200
H906        H  0.33328392  0.61694380  0.17856948     0.12300
H907        H  0.41261168  0.66046998  0.13923169     0.08900
H908        H  0.44012334  0.63728697  0.15638297     0.11600
C909        C  0.27108323  0.64024952  0.15672361    -0.03000
C910        C  0.25063980  0.65245043  0.15274325    -0.05600
C911        C  0.22042348  0.63938863  0.16133409    -0.20700
C912        C  0.20981131  0.61358822  0.17390039     0.25100
C913        C  0.23100626  0.60238287  0.17859803    -0.18200
C914        C  0.26147883  0.61574552  0.17010176    -0.08200
C915        C  0.17664609  0.59930965  0.18178946    -0.18500
C916        C  0.15937655  0.56875797  0.18771205    -0.23300
C917        C  0.12636209  0.55463164  0.19575117     0.27100
C918        C  0.11630065  0.52970891  0.20890858    -0.20000
C919        C  0.08613520  0.51671470  0.21754197    -0.09700
C920        C  0.06527729  0.52823117  0.21308483    -0.10200
C921        C  0.07437499  0.55183758  0.19914900    -0.03200
C922        C  0.10477065  0.56509113  0.19057918    -0.18300
H923        H  0.25777625  0.67156310  0.14254517     0.10800
H924        H  0.20486077  0.64881644  0.15768353     0.10900
H925        H  0.22418673  0.58331722  0.18874831     0.10500
H926        H  0.27696626  0.60609464  0.17337730     0.11700
H927        H  0.16588247  0.61441563  0.18221646     0.11700
H928        H  0.17006310  0.55359442  0.18731740     0.13700
H929        H  0.13220991  0.52086567  0.21291785     0.10200
H930        H  0.07933247  0.99815926  0.22807906     0.12300
H931        H  0.05842193  0.56074904  0.19538819     0.08900
H932        H  0.11123618  0.58343829  0.17996798     0.11600
C933        C  0.10452892  0.55581558  0.44017416    -0.03000
C934        C  0.13362350  0.58150611  0.44690534    -0.05600
C935        C  0.16032111  0.59713391  0.43488562    -0.20700
C936        C  0.15861417  0.58685380  0.41612074     0.25100
C937        C  0.12958737  0.56115276  0.40941531    -0.18200
C938        C  0.10283011  0.54590287  0.42128614    -0.08200
C939        C  0.18684633  0.60387965  0.40347860    -0.18500
C940        C  0.19404393  0.58842643  0.39023811    -0.23300
C941        C  0.22167455  0.60518956  0.37721855     0.27100
C942        C  0.23964943  0.59063230  0.37230752    -0.20000
C943        C  0.26583873  0.60593583  0.36001279    -0.09700
C944        C  0.27353917  0.63535447  0.35190104    -0.10200
C945        C  0.25531402  0.64974531  0.35642617    -0.03200
C946        C  0.22958858  0.63483700  0.36912773    -0.18300
H947        H  0.13556663  0.58988211  0.46133285     0.10800
H948        H  0.18240697  0.61711706  0.44026953     0.10900
H949        H  0.12730985  0.55325501  0.39486055     0.10500
H950        H  0.08072420  0.52634149  0.41562161     0.11700
H951        H  0.20271317  0.62940997  0.40557675     0.11700
H952        H  0.18021837  0.56247124  0.38951404     0.13700
H953        H  0.23377483  0.56770095  0.37828593     0.10200
H954        H  0.28002073  0.59479387  0.35670417     0.12300
H955        H  0.26128718  0.67262250  0.35032481     0.08900
H956        H  0.21563693  0.64620883  0.37241600     0.11600
C957        C  0.36852052  0.73138702  0.35219072    -0.03000
C958        C  0.40126140  0.75370758  0.34954991    -0.05600
C959        C  0.41721023  0.77943600  0.36202048    -0.20700
C960        C  0.40080335  0.78308067  0.37743432     0.25100
C961        C  0.36785857  0.76071948  0.37990711    -0.18200
C962        C  0.35201079  0.73494903  0.36748285    -0.08200
C963        C  0.41838620  0.81130056  0.38999541    -0.18500
C964        C  0.40850305  0.81311714  0.40758751    -0.23300
C965        C  0.42461644  0.84243288  0.41944378     0.27100
C966        C  0.41907042  0.83990992  0.43906103    -0.20000
C967        C  0.43277295  0.86722222  0.45054076    -0.09700
C968        C  0.45213318  0.89763477  0.44255239    -0.10200
C969        C  0.45748013  0.90011400  0.42290572    -0.03200
C970        C  0.44379977  0.87293429  0.41147936    -0.18300
H971        H  0.41457037  0.75094422  0.33802158     0.10800
H972        H  0.44249987  0.79641322  0.35970874     0.10900
H973        H  0.35399561  0.76320636  0.39116349     0.10500
H974        H  0.32671208  0.71787930  0.36969272     0.11700
H975        H  0.44064444  0.83100633  0.38453264     0.11700
H976        H  0.38807451  0.79228838  0.41378409     0.13700
H977        H  0.40400551  0.81673389  0.44551505     0.10200
H978        H  0.42799291  0.86454117  0.46560622     0.12300
H979        H  0.47197268  0.92319739  0.41623319     0.08900
H980        H  0.44770725  0.87620962  0.39638368     0.11600
C981        C  0.44974254  0.54259659  0.43220039    -0.03000
C982        C  0.44908066  0.53399023  0.41310741    -0.05600
C983        C  0.43627367  0.54500773  0.39927299    -0.20700
C984        C  0.42421936  0.56513245  0.40416934     0.25100
C985        C  0.42418594  0.57317966  0.42333611    -0.18200
C986        C  0.43688450  0.56205962  0.43719453    -0.08200
C987        C  0.41106521  0.57658315  0.38905998    -0.18500
C988        C  0.41069929  0.60414348  0.39054173    -0.23300
C989        C  0.39689206  0.61615260  0.37613904     0.27100
C990        C  0.40411932  0.64802808  0.37762236    -0.20000
C991        C  0.39038173  0.66020488  0.36524156    -0.09700
C992        C  0.36921667  0.64079296  0.35105887    -0.10200
C993        C  0.36185989  0.60892321  0.34937958    -0.03200
C994        C  0.37557480  0.59661085  0.36183339    -0.18300
H995        H  0.45852699  0.51875667  0.40881514     0.10800
H996        H  0.43616992  0.53812848  0.38465950     0.10900
H997        H  0.41397173  0.58765520  0.42776143     0.10500
H998        H  0.43678643  0.56885957  0.45179624     0.11700
H999        H  0.40286545  0.56254061  0.37617149     0.11700
H1000       H  0.42178808  0.61930320  0.40280489     0.13700
H1001       H  0.42021188  0.66352326  0.38856120     0.10200
H1002       H  0.39614593  0.68483340  0.36679483     0.12300
H1003       H  0.34494861  0.59343097  0.33875038     0.08900
H1004       H  0.36858019  0.57167615  0.36049915     0.11600
C1005       C  0.36593541  0.73373317  0.30926704    -0.03000
C1006       C  0.39007352  0.74026245  0.29591838    -0.05600
C1007       C  0.40648263  0.77027020  0.28718236    -0.20700
C1008       C  0.39854232  0.79394134  0.29135291     0.25100
C1009       C  0.37359207  0.78688399  0.30434027    -0.18200
C1010       C  0.35744629  0.75703335  0.31317480    -0.08200
C1011       C  0.41789080  0.82620449  0.28278196    -0.18500
C1012       C  0.40648902  0.84631203  0.28007252    -0.23300
C1013       C  0.42602745  0.87821736  0.27121599     0.27100
C1014       C  0.41078609  0.88996995  0.25945410    -0.20000
C1015       C  0.42874732  0.91932846  0.25025940    -0.09700
C1016       C  0.46213669  0.93774387  0.25303394    -0.10200
C1017       C  0.47725878  0.92681016  0.26544528    -0.03200
C1018       C  0.45938910  0.89715063  0.27440806    -0.18300
H1019       H  0.39710881  0.72263580  0.29286023     0.10800
H1020       H  0.42571132  0.77516981  0.27731337     0.10900
H1021       H  0.36727322  0.80468822  0.30827371     0.10500
H1022       H  0.33886785  0.75237637  0.32348296     0.11700
H1023       H  0.44195213  0.83309279  0.27781974     0.11700
H1024       H  0.38142791  0.83840962  0.28315625     0.13700
H1025       H  0.38508033  0.87597135  0.25695484     0.10200
H1026       H  0.41670675  0.92753300  0.24075220     0.12300
H1027       H  0.00300191  0.94064949  0.26766903     0.08900
H1028       H  0.47164985  0.88906405  0.28380338     0.11600
C1029       C  0.46832223  0.53299286  0.25372270    -0.03000
C1030       C  0.48456765  0.55269065  0.26920343    -0.05600
C1031       C  0.47092283  0.56794698  0.27925116    -0.20700
C1032       C  0.44089044  0.56391698  0.27395179     0.25100
C1033       C  0.42388527  0.54276584  0.25903927    -0.18200
C1034       C  0.43745145  0.52736530  0.24909897    -0.08200
C1035       C  0.42814780  0.58199696  0.28438523    -0.18500
C1036       C  0.40669049  0.58925557  0.27698793    -0.23300
C1037       C  0.39445434  0.60777947  0.28738474     0.27100
C1038       C  0.36390386  0.60309722  0.28279775    -0.20000
C1039       C  0.35095610  0.61900796  0.29284949    -0.09700
C1040       C  0.36845940  0.64004366  0.30757910    -0.10200
C1041       C  0.39984092  0.64635892  0.31137034    -0.03200
C1042       C  0.41268572  0.63027001  0.30146117    -0.18300
H1043       H  0.50826527  0.55708751  0.27313196     0.10800
H1044       H  0.48428086  0.58366264  0.29087890     0.10900
H1045       H  0.40009002  0.53785170  0.25503440     0.10500
H1046       H  0.42407162  0.51143906  0.23755699     0.11700
H1047       H  0.43758832  0.59031193  0.29849454     0.11700
H1048       H  0.39707803  0.58091978  0.26292157     0.13700
H1049       H  0.34962762  0.58635906  0.27177570     0.10200
H1050       H  0.32681595  0.61401230  0.28957701     0.12300
H1051       H  0.41425105  0.66340048  0.32222523     0.08900
H1052       H  0.43690026  0.63568127  0.30480015     0.11600
C1053       C  0.06260009  0.53224154  0.25558425    -0.03000
C1054       C  0.06681932  0.51541702  0.27037890    -0.05600
C1055       C  0.09596947  0.52904684  0.28034724    -0.20700
C1056       C  0.12133760  0.55975347  0.27573149     0.25100
C1057       C  0.11613369  0.57730738  0.26168652    -0.18200
C1058       C  0.08708107  0.56366357  0.25176426    -0.08200
C1059       C  0.15258204  0.57269474  0.28595764    -0.18500
C1060       C  0.18076249  0.59666538  0.27924517    -0.23300
C1061       C  0.21191450  0.60981228  0.28949833     0.27100
C1062       C  0.23617589  0.64149093  0.28590467    -0.20000
C1063       C  0.26557889  0.65501436  0.29555916    -0.09700
C1064       C  0.27126048  0.63702643  0.30892655    -0.10200
C1065       C  0.24769932  0.60491211  0.31188632    -0.03200
C1066       C  0.21825792  0.59141141  0.30232743    -0.18300
H1067       H  0.04810209  0.99135871  0.27375461     0.10800
H1068       H  0.09903021  0.51521777  0.29135492     0.10900
H1069       H  0.13424239  0.60158060  0.25826592     0.10500
H1070       H  0.08390720  0.57747709  0.24079618     0.11700
H1071       H  0.15223496  0.56161979  0.29937018     0.11700
H1072       H  0.18131353  0.60786264  0.26586396     0.13700
H1073       H  0.23209300  0.65603167  0.27588168     0.10200
H1074       H  0.28355189  0.67977048  0.29297212     0.12300
H1075       H  0.25208583  0.59022187  0.32159620     0.08900
H1076       H  0.20079736  0.56652831  0.30486117     0.11600
C1077       C  0.13236279  0.76982631  0.85021920    -0.03000
C1078       C  0.14085205  0.74630052  0.84707219    -0.05600
C1079       C  0.12818533  0.71907169  0.85853654    -0.20700
C1080       C  0.10734883  0.71519524  0.87355969     0.25100
C1081       C  0.09868424  0.73867436  0.87657619    -0.18200
C1082       C  0.11127921  0.76578782  0.86509661    -0.08200
C1083       C  0.09447322  0.68613753  0.88554051    -0.18500
C1084       C  0.08591212  0.68560287  0.90376381    -0.23300
C1085       C  0.07299315  0.65664291  0.91582853     0.27100
C1086       C  0.07720556  0.66028758  0.93551059    -0.20000
C1087       C  0.06484173  0.63351820  0.94734413    -0.09700
C1088       C  0.04763648  0.60250861  0.93971607    -0.10200
C1089       C  0.04312022  0.59891000  0.92000293    -0.03200
C1090       C  0.05558250  0.62564735  0.90818980    -0.18300
H1091       H  0.15759289  0.74919205  0.83591482     0.10800
H1092       H  0.13510452  0.70124857  0.85587712     0.10900
H1093       H  0.08189794  0.73603747  0.88762717     0.10500
H1094       H  0.10438629  0.78356021  0.86781411     0.11700
H1095       H  0.09362941  0.66511365  0.87940777     0.11700
H1096       H  0.08991254  0.70755118  0.91044541     0.13700
H1097       H  0.09030348  0.68394172  0.94173888     0.10200
H1098       H  0.06872784  0.63712820  0.96245607     0.12300
H1099       H  0.02977278  0.57537635  0.91365880     0.08900
H1100       H  0.05096819  0.62192407  0.89315044     0.11600
C1101       C  0.40209064  0.94458178  0.93723339    -0.03000
C1102       C  0.40863929  0.94312541  0.91796438    -0.05600
C1103       C  0.38372501  0.92910875  0.90480990    -0.20700
C1104       C  0.35161829  0.91639630  0.91047825     0.25100
C1105       C  0.34481927  0.91703565  0.92984436    -0.18200
C1106       C  0.36987633  0.93106958  0.94308744    -0.08200
C1107       C  0.32626746  0.90256924  0.89567236    -0.18500
C1108       C  0.29679530  0.89909188  0.89770842    -0.23300
C1109       C  0.27211159  0.88708724  0.88246466     0.27100
C1110       C  0.24630053  0.89283247  0.88411594    -0.20000
C1111       C  0.22217991  0.88164888  0.87039165    -0.09700
C1112       C  0.22337641  0.86450090  0.85469478    -0.10200
C1113       C  0.24901239  0.85855907  0.85294066    -0.03200
C1114       C  0.27314488  0.86962979  0.86671929    -0.18300
H1115       H  0.43314769  0.95302708  0.91294738     0.10800
H1116       H  0.38964948  0.92865174  0.89005137     0.10900
H1117       H  0.32031548  0.90654467  0.93489769     0.10500
H1118       H  0.36404854  0.93156707  0.95784972     0.11700
H1119       H  0.33319966  0.89720642  0.88215254     0.11700
H1120       H  0.29089949  0.90701985  0.91070326     0.13700
H1121       H  0.24473932  0.90598883  0.89610926     0.10200
H1122       H  0.20246484  0.88630962  0.87207539     0.12300
H1123       H  0.24983919  0.84451928  0.84121772     0.08900
H1124       H  0.29189327  0.86362839  0.86514422     0.11600
C1125       C  0.06116171  0.96273635  0.93886442    -0.03000
C1126       C  0.07258878  0.97921993  0.92164976    -0.05600
C1127       C  0.08746797  0.96947635  0.90838278    -0.20700
C1128       C  0.09070220  0.94270081  0.91185458     0.25100
C1129       C  0.08049987  0.92693419  0.92940805    -0.18200
C1130       C  0.06596282  0.93699327  0.94284362    -0.08200
C1131       C  0.10457222  0.93183825  0.89679112    -0.18500
C1132       C  0.09588889  0.90091689  0.89443504    -0.23300
C1133       C  0.10793558  0.88910380  0.87882504     0.27100
C1134       C  0.09005259  0.85659163  0.87393447    -0.20000
C1135       C  0.10132392  0.84390099  0.86014999    -0.09700
C1136       C  0.13067161  0.86349567  0.85104274    -0.10200
C1137       C  0.14842488  0.89608292  0.85552706    -0.03200
C1138       C  0.13722022  0.90887134  0.86935823    -0.18300
H1139       H  0.06969058  0.99951497  0.91832906     0.10800
H1140       H  0.09557474  0.98230243  0.89511027     0.10900
H1141       H  0.08365997  0.90684238  0.93278258     0.10500
H1142       H  0.05763735  0.92408592  0.95606793     0.11700
H1143       H  0.12019409  0.94946091  0.88649078     0.11700
H1144       H  0.07779550  0.88308866  0.90375133     0.13700
H1145       H  0.06750139  0.84085099  0.88100781     0.10200
H1146       H  0.08743068  0.81866472  0.85681321     0.12300
H1147       H  0.17156900  0.91126547  0.84889443     0.08900
H1148       H  0.15218573  0.93382190  0.87306171     0.11600
C1149       C  0.43529480  0.96919851  0.75264781    -0.03000
C1150       C  0.42744561  0.94260175  0.76407621    -0.05600
C1151       C  0.39769888  0.92662817  0.77337441    -0.20700
C1152       C  0.37529529  0.93711187  0.77167502     0.25100
C1153       C  0.38352976  0.96433273  0.76053316    -0.18200
C1154       C  0.41324975  0.98014440  0.75107605    -0.08200
C1155       C  0.34292561  0.91764673  0.78059544    -0.18500
C1156       C  0.32340673  0.92914745  0.78535692    -0.23300
C1157       C  0.29118112  0.90898206  0.79427589     0.27100
C1158       C  0.27939595  0.92316665  0.80691134    -0.20000
C1159       C  0.24940340  0.90484022  0.81568516    -0.09700
C1160       C  0.23028541  0.87204393  0.81173194    -0.10200
C1161       C  0.24141889  0.85797921  0.79863080    -0.03200
C1162       C  0.27167945  0.87619442  0.79005481    -0.18300
H1163       H  0.44349229  0.93310303  0.76499483     0.10800
H1164       H  0.39191046  0.90555555  0.78165188     0.10900
H1165       H  0.36667622  0.97273097  0.75847393     0.10500
H1166       H  0.41872758  0.00042072  0.74211498     0.11700
H1167       H  0.33541860  0.89297424  0.78402414     0.11700
H1168       H  0.33190443  0.95448042  0.78370241     0.13700
H1169       H  0.29369311  0.94839807  0.81024998     0.10200
H1170       H  0.24109009  0.91623100  0.82562525     0.12300
H1171       H  0.22704850  0.83277251  0.79536024     0.08900
H1172       H  0.27958432  0.86465933  0.77998231     0.11600
C1173       C  0.13459360  0.86751570  0.80803442    -0.03000
C1174       C  0.15453188  0.89135957  0.79515647    -0.05600
C1175       C  0.14308357  0.90887027  0.78536068    -0.20700
C1176       C  0.11156855  0.90292860  0.78831854     0.25100
C1177       C  0.09119753  0.87795648  0.80059658    -0.18200
C1178       C  0.10264177  0.86050059  0.81034378    -0.08200
C1179       C  0.10037913  0.92246256  0.77800112    -0.18500
C1180       C  0.07703230  0.92771664  0.78465587    -0.23300
C1181       C  0.06391201  0.94545346  0.77417290     0.27100
C1182       C  0.03332205  0.94024383  0.77919913    -0.20000
C1183       C  0.01894036  0.95461634  0.76904422    -0.09700
C1184       C  0.03476374  0.97443811  0.75354438    -0.10200
C1185       C  0.06634430  0.98158433  0.74934084    -0.03200
C1186       C  0.08074052  0.96711604  0.75944741    -0.18300
H1187       H  0.17923187  0.89707029  0.79310996     0.10800
H1188       H  0.15910881  0.92759377  0.77575579     0.10900
H1189       H  0.06632888  0.87157425  0.80259575     0.10500
H1190       H  0.08652068  0.84151643  0.81976495     0.11700
H1191       H  0.11202080  0.93283222  0.76462557     0.11700
H1192       H  0.06595582  0.91753989  0.79819951     0.13700
H1193       H  0.02003242  0.92422658  0.79072473     0.10200
H1194       H  0.49509138  0.94939435  0.77297587     0.12300
H1195       H  0.07964114  0.49785329  0.73795211     0.08900
H1196       H  0.10492373  0.97300604  0.75563628     0.11600
C1197       C  0.13355168  0.77199725  0.80696002    -0.03000
C1198       C  0.15142409  0.76760862  0.79279108    -0.05600
C1199       C  0.13813779  0.73874365  0.78273183    -0.20700
C1200       C  0.10677380  0.71375252  0.78666935     0.25100
C1201       C  0.08828930  0.71896462  0.80016561    -0.18200
C1202       C  0.10154317  0.74781697  0.81013324    -0.08200
C1203       C  0.09404398  0.68297348  0.77618691    -0.18500
C1204       C  0.07016095  0.65470517  0.78276484    -0.23300
C1205       C  0.05717452  0.62386317  0.77230311     0.27100
C1206       C  0.02619878  0.59866295  0.77683778    -0.20000
C1207       C  0.01267377  0.56959748  0.76698253    -0.09700
C1208       C  0.02992352  0.56521658  0.75241789    -0.10200
C1209       C  0.06142524  0.58975933  0.74843594    -0.03200
C1210       C  0.07494651  0.61878542  0.75823726    -0.18300
H1211       H  0.17599680  0.78600190  0.78996680     0.10800
H1212       H  0.15271481  0.73560928  0.77217142     0.10900
H1213       H  0.06356670  0.70100960  0.80303654     0.10500
H1214       H  0.08694104  0.75106814  0.82061932     0.11700
H1215       H  0.10532269  0.68386144  0.76272186     0.11700
H1216       H  0.05903277  0.65391523  0.79627622     0.13700
H1217       H  0.01214458  0.60171756  0.78778730     0.10200
H1218       H  0.48842401  0.55088398  0.77035524     0.12300
H1219       H  0.07553296  0.58649999  0.73761432     0.08900
H1220       H  0.09935727  0.63690394  0.75482402     0.11600
C1221       C  0.04691730  0.60620501  0.52127293    -0.03000
C1222       C  0.03483419  0.62726283  0.51967178    -0.05600
C1223       C  0.04722829  0.65468946  0.53098190    -0.20700
C1224       C  0.07108064  0.66087420  0.54444564     0.25100
C1225       C  0.08317521  0.63989118  0.54608058    -0.18200
C1226       C  0.07141570  0.61295425  0.53446703    -0.08200
C1227       C  0.08390423  0.68974343  0.55639433    -0.18500
C1228       C  0.08774957  0.68841967  0.57512255    -0.23300
C1229       C  0.10207107  0.71732781  0.58710562     0.27100
C1230       C  0.08872792  0.71647809  0.60487235    -0.20000
C1231       C  0.10267803  0.74342736  0.61659528    -0.09700
C1232       C  0.13131903  0.77116632  0.61121406    -0.10200
C1233       C  0.14434686  0.77183922  0.59325378    -0.03200
C1234       C  0.12979142  0.74531629  0.58128430    -0.18300
H1235       H  0.01607192  0.62270560  0.50954798     0.10800
H1236       H  0.03782817  0.67080075  0.52946362     0.10900
H1237       H  0.10202862  0.64459614  0.55617279     0.10500
H1238       H  0.08118340  0.59715817  0.53600392     0.11700
H1239       H  0.08917421  0.71218763  0.54983415     0.11700
H1240       H  0.07931914  0.66540041  0.58192327     0.13700
H1241       H  0.06714187  0.69512726  0.60951926     0.10200
H1242       H  0.09076268  0.74248497  0.62975699     0.12300
H1243       H  0.16601829  0.79267348  0.58837533     0.08900
H1244       H  0.14072230  0.74637406  0.56768397     0.11600
C1245       C  0.40127578  0.95906151  0.52542302    -0.03000
C1246       C  0.38476190  0.97601092  0.52781229    -0.05600
C1247       C  0.35996425  0.96599172  0.54110783    -0.20700
C1248       C  0.35100171  0.93877029  0.55222633     0.25100
C1249       C  0.36767651  0.92190753  0.54992336    -0.18200
C1250       C  0.39234041  0.93181708  0.53656676    -0.08200
C1251       C  0.32465629  0.92906848  0.56628503    -0.18500
C1252       C  0.30670925  0.89876641  0.57245231    -0.23300
C1253       C  0.27932660  0.88766905  0.58589430     0.27100
C1254       C  0.25831221  0.85458662  0.58754928    -0.20000
C1255       C  0.23214781  0.84256905  0.59987504    -0.09700
C1256       C  0.22655662  0.86335400  0.61090751    -0.10200
C1257       C  0.24760112  0.89641138  0.60965220    -0.03200
C1258       C  0.27390929  0.90858029  0.59724730    -0.18300
H1259       H  0.39112317  0.99716774  0.51948893     0.10800
H1260       H  0.34766225  0.97951144  0.54267415     0.10900
H1261       H  0.36236478  0.90149056  0.55866472     0.10500
H1262       H  0.40490217  0.91851496  0.53528203     0.11700
H1263       H  0.31890111  0.94711815  0.57071242     0.11700
H1264       H  0.31106142  0.88048505  0.56662360     0.13700
H1265       H  0.26212274  0.83790116  0.57924409     0.10200
H1266       H  0.21672494  0.81695411  0.60118138     0.12300
H1267       H  0.24361171  0.91269242  0.61824536     0.08900
H1268       H  0.28993794  0.93416590  0.59684822     0.11600
C1269       C  0.13249088  0.86470516  0.61372180    -0.03000
C1270       C  0.10050248  0.85669825  0.61717046    -0.05600
C1271       C  0.08556006  0.86889954  0.60561703    -0.20700
C1272       C  0.10225457  0.88918535  0.59038881     0.25100
C1273       C  0.13430853  0.89695163  0.58694783    -0.18200
C1274       C  0.14921540  0.88486201  0.59854310    -0.08200
C1275       C  0.08492696  0.90021050  0.57781542    -0.18500
C1276       C  0.10004672  0.92536941  0.56603431    -0.23300
C1277       C  0.08310468  0.93586808  0.55283780     0.27100
C1278       C  0.10003428  0.96714935  0.54574670    -0.20000
C1279       C  0.08545386  0.97814242  0.53310448    -0.09700
C1280       C  0.05354795  0.95800128  0.52713178    -0.10200
C1281       C  0.03668827  0.92642410  0.53393327    -0.03200
C1282       C  0.05133499  0.91539217  0.54660734    -0.18300
H1283       H  0.08694043  0.84058995  0.62858832     0.10800
H1284       H  0.06076922  0.86220009  0.60845692     0.10900
H1285       H  0.14781562  0.91153532  0.57503935     0.10500
H1286       H  0.17383243  0.89105959  0.59556434     0.11700
H1287       H  0.05883914  0.88748514  0.57869724     0.11700
H1288       H  0.12609067  0.93990610  0.56643381     0.13700
H1289       H  0.12463948  0.98328569  0.55011479     0.10200
H1290       H  0.09914477  0.50256694  0.52814597     0.12300
H1291       H  0.01219014  0.91019847  0.52944431     0.08900
H1292       H  0.03783326  0.89075829  0.55119491     0.11600
C1293       C  0.13760294  0.76975674  0.65446967    -0.03000
C1294       C  0.15103753  0.75026609  0.65107705    -0.05600
C1295       C  0.13797189  0.72021962  0.65962792    -0.20700
C1296       C  0.11095384  0.70887621  0.67150842     0.25100
C1297       C  0.09854654  0.72918555  0.67564172    -0.18200
C1298       C  0.11192066  0.75945670  0.66724035    -0.08200
C1299       C  0.09670928  0.67593562  0.67935640    -0.18500
C1300       C  0.06543883  0.65785070  0.68427574    -0.23300
C1301       C  0.05134063  0.62500466  0.69228367     0.27100
C1302       C  0.02431566  0.61367264  0.70414521    -0.20000
C1303       C  0.01158827  0.58387080  0.71297281    -0.09700
C1304       C  0.02537993  0.56457006  0.70994371    -0.10200
C1305       C  0.05114444  0.57489672  0.69723094    -0.03200
C1306       C  0.06409429  0.60487793  0.68847566    -0.18300
H1307       H  0.17103367  0.75795494  0.64133881     0.10800
H1308       H  0.14833439  0.70532871  0.65644642     0.10900
H1309       H  0.07849124  0.72178745  0.68525814     0.10500
H1310       H  0.10124778  0.77415217  0.67001901     0.11700
H1311       H  0.11257727  0.66609453  0.68061606     0.11700
H1312       H  0.04957937  0.66771062  0.68301738     0.13700
H1313       H  0.01368582  0.62839951  0.70710715     0.10200
H1314       H  0.49150258  0.57621284  0.72263721     0.12300
H1315       H  0.06215370  0.56044694  0.69470487     0.08900
H1316       H  0.08415556  0.61222021  0.67887275     0.11600
C1317       C  0.43584444  0.96593509  0.70964067    -0.03000
C1318       C  0.43204270  0.98067605  0.69351920    -0.05600
C1319       C  0.40371557  0.96515581  0.68278424    -0.20700
C1320       C  0.37850429  0.93496361  0.68821719     0.25100
C1321       C  0.38270010  0.91975138  0.70395752    -0.18200
C1322       C  0.41130828  0.93486406  0.71435172    -0.08200
C1323       C  0.34819717  0.91939273  0.67715323    -0.18500
C1324       C  0.31911439  0.90473672  0.68558735    -0.23300
C1325       C  0.28864263  0.89017630  0.67467606     0.27100
C1326       C  0.26287222  0.89369282  0.68104728    -0.20000
C1327       C  0.23402484  0.88043808  0.67079770    -0.09700
C1328       C  0.23019972  0.86282353  0.65421871    -0.10200
C1329       C  0.25548393  0.85789870  0.64846729    -0.03200
C1330       C  0.28460992  0.87192028  0.65837214    -0.18300
H1331       H  0.45067873  0.00446972  0.68946132     0.10800
H1332       H  0.40108833  0.97710588  0.67053509     0.10900
H1333       H  0.36401215  0.89600893  0.70806155     0.10500
H1334       H  0.41419183  0.92220794  0.72610597     0.11700
H1335       H  0.34977039  0.92197195  0.66185169     0.11700
H1336       H  0.31763794  0.90527161  0.70092274     0.13700
H1337       H  0.26535439  0.90733356  0.69374528     0.10200
H1338       H  0.21489248  0.88439584  0.67566873     0.12300
H1339       H  0.25273200  0.84291992  0.63642852     0.08900
H1340       H  0.30372062  0.86789987  0.65353613     0.11600
C1341       C  0.03189620  0.97033608  0.71032418    -0.03000
C1342       C  0.05244163  0.98658294  0.69512727    -0.05600
C1343       C  0.06818039  0.97308847  0.68536990    -0.20700
C1344       C  0.06374100  0.94308613  0.69061398     0.25100
C1345       C  0.04168735  0.92604022  0.70517969    -0.18200
C1346       C  0.02583052  0.93947505  0.71482189    -0.08200
C1347       C  0.08201555  0.93024659  0.68032290    -0.18500
C1348       C  0.08789535  0.90775098  0.68745918    -0.23300
C1349       C  0.10576800  0.89463163  0.67704756     0.27100
C1350       C  0.10005348  0.86394413  0.68171567    -0.20000
C1351       C  0.11518880  0.85009144  0.67169926    -0.09700
C1352       C  0.13637882  0.86669397  0.65683666    -0.10200
C1353       C  0.14372188  0.89816164  0.65293361    -0.03200
C1354       C  0.12850253  0.91197715  0.66285419    -0.18300
H1355       H  0.05711849  0.01012019  0.69116017     0.10800
H1356       H  0.08450072  0.98649524  0.67396576     0.10900
H1357       H  0.03632592  0.90226385  0.70912604     0.10500
H1358       H  0.00916812  0.92594151  0.72605744     0.11700
H1359       H  0.09129478  0.94020487  0.66644415     0.11700
H1360       H  0.07862783  0.89771691  0.70131629     0.13700
H1361       H  0.08309913  0.85026439  0.69280429     0.09200
H1362       H  0.10941560  0.82599012  0.67511317     0.12300
H1363       H  0.16080187  0.91184316  0.64190120     0.08900
H1364       H  0.13472388  0.93619655  0.65938095     0.11600
C1365       C  0.66610029  0.33293012  0.65243102     0.45700
H1366       H  0.66683084  0.33229597  0.66812855    -0.03400
C1367       C  0.66426299  0.33389241  0.61564402     0.45700
H1368       H  0.66354144  0.33483359  0.59997147    -0.03400
C1369       C  0.64921813  0.35056245  0.64460537    -0.17000
C1370       C  0.69977315  0.34959470  0.64308701    -0.16800
C1371       C  0.64853049  0.29938493  0.64329443    -0.17200
C1372       C  0.64819843  0.35073650  0.62518108    -0.17200
C1373       C  0.69844206  0.34998282  0.62365882    -0.16700
C1374       C  0.64720981  0.29990364  0.62380501    -0.17000
C1375       C  0.66637288  0.33548447  0.81145050     0.45700
H1376       H  0.66835449  0.33691923  0.79577405    -0.03400
C1377       C  0.66144452  0.33226398  0.84818439     0.45700
H1378       H  0.65945287  0.33101177  0.86387146    -0.03400
C1379       C  0.69916014  0.35253204  0.82175750    -0.17000
C1380       C  0.64755094  0.35097731  0.81972113    -0.16800
C1381       C  0.64872345  0.30088551  0.81926139    -0.17200
C1382       C  0.69627795  0.35061929  0.84113266    -0.17200
C1383       C  0.64503610  0.34894515  0.83907427    -0.16700
C1384       C  0.64659750  0.29950076  0.83869775    -0.17000
C1385       C  0.49945123  0.00143016  0.71290368     0.45700
H1386       H  0.49958825  0.00117318  0.69718440    -0.03400
C1387       C  0.49904039  0.00192212  0.74983217     0.45700
H1388       H  0.99893884  0.00236111  0.76555104    -0.03400
C1389       C  0.51763492  0.48596356  0.72188641    -0.17000
C1390       C  0.51460805  0.03520364  0.72147668    -0.16800
C1391       C  0.96537191  0.48305215  0.72151929    -0.17200
C1392       C  0.51774397  0.48656820  0.74141016    -0.17200
C1393       C  0.51481693  0.03543924  0.74092516    -0.16700
C1394       C  0.96517529  0.48361276  0.74100561    -0.17000
C1395       C  0.83519029  0.17021862  0.31122109     0.45700
H1396       H  0.83496350  0.17068316  0.29550297    -0.03400
C1397       C  0.83575907  0.16937318  0.34806714     0.45700
H1398       H  0.83583821  0.16887003  0.36380087    -0.03400
C1399       C  0.80135803  0.15218317  0.32019519    -0.17000
C1400       C  0.85321919  0.15403429  0.31953151    -0.16800
C1401       C  0.85154232  0.20372521  0.32034825    -0.17200
C1402       C  0.80200998  0.15178051  0.33959432    -0.17200
C1403       C  0.85344719  0.15384811  0.33899984    -0.16700
C1404       C  0.85184466  0.20304202  0.33977152    -0.17000
C1405       C  0.83481486  0.16757289  0.11742972     0.45700
H1406       H  0.83492809  0.16732283  0.10171484    -0.03400
C1407       C  0.83504593  0.16812874  0.15428840     0.45700
H1408       H  0.83503644  0.16859867  0.17000524    -0.03400
C1409       C  0.80101467  0.15061600  0.12602398    -0.17000
C1410       C  0.85154851  0.15078993  0.12611630    -0.16800
C1411       C  0.85207409  0.20124396  0.12590363    -0.17200
C1412       C  0.80095101  0.15134492  0.14548111    -0.17200
C1413       C  0.85226570  0.15128357  0.14560430    -0.16700
C1414       C  0.85218030  0.20177871  0.14533392    -0.17000
C1415       C  0.50174562  0.00193694  0.21427414     0.45700
H1416       H  0.50318882  0.00239229  0.19857569    -0.03400
C1417       C  0.49905756  0.00066258  0.25120153     0.45700
H1418       H  0.49774587  0.99997225  0.26690976    -0.03400
C1419       C  0.98588745  0.02026464  0.22260623    -0.17000
C1420       C  0.98289643  0.46798159  0.22259495    -0.16800
C1421       C  0.53488904  0.01680099  0.22387992    -0.17200
C1422       C  0.98402553  0.01900467  0.24210794    -0.17200
C1423       C  0.98129615  0.46743991  0.24199877    -0.16700
C1424       C  0.53353073  0.01666957  0.24333221    -0.17000
Zn1425     Zn  0.50138769  0.00216824  0.95503808     1.49700
Zn1426     Zn  0.52204857  0.04475748  0.99121305     1.49400
Zn1427     Zn  0.95488719  0.47813819  0.99090731     1.49100
Zn1428     Zn  0.52255126  0.47842466  0.99153419     1.49500
O1429       O  0.50004650  0.00059316  0.98240011    -1.83900
O1430       O  0.51960695  0.04636712  0.94463246    -0.74500
O1431       O  0.99217271  0.05253427  0.00692298    -0.74400
O1432       O  0.92388042  0.46003075  0.96853574    -0.73900
O1433       O  0.53820669  0.07727968  0.96998160    -0.74600
O1434       O  0.95763641  0.47555013  0.94416883    -0.74200
O1435       O  0.94481569  0.00759283  0.00645671    -0.74700
O1436       O  0.99266336  0.43984069  0.00745203    -0.74100
O1437       O  0.55925911  0.05346371  0.00782724    -0.74900
O1438       O  0.94717523  0.44147675  0.00799309    -0.74300
O1439       O  0.55943860  0.00762560  0.00877564    -0.74700
O1440       O  0.54154750  0.46556656  0.96960038    -0.74700
O1441       O  0.52926252  0.48606829  0.94503890    -0.74400
C1442       C  0.53444735  0.07398301  0.95212548     0.77300
C1443       C  0.96275262  0.03646850  0.01186152     0.77800
C1444       C  0.92915877  0.46077375  0.95077888     0.76800
C1445       C  0.96383907  0.42898960  0.01325516     0.77200
C1446       C  0.57107702  0.03670281  0.01382043     0.78300
C1447       C  0.54310741  0.47184105  0.95195832     0.77400
Zn1448     Zn  0.97772395  0.02509356  0.48768475     1.49700
Zn1449     Zn  0.50304206  0.99920170  0.45438921     1.49400
Zn1450     Zn  0.54499542  0.02663686  0.49130245     1.49100
Zn1451     Zn  0.97860143  0.45928410  0.49258978     1.49500
O1452       O  0.50099044  0.00247985  0.48164351    -1.83900
O1453       O  0.96150319  0.03623155  0.46416381    -0.74500
O1454       O  0.54829340  0.02251983  0.44466903    -0.74400
O1455       O  0.55086284  0.06387181  0.50695695    -0.73900
O1456       O  0.97939832  0.01772359  0.44125961    -0.74600
O1457       O  0.50610401  0.06576712  0.50209983    -0.74200
O1458       O  0.57820975  0.04432673  0.47022839    -0.74700
O1459       O  0.50865099  0.45232160  0.50938913    -0.74100
O1460       O  0.98240668  0.45383451  0.44610730    -0.74900
O1461       O  0.55447876  0.49880246  0.50799779    -0.74300
O1462       O  0.96184453  0.42506451  0.47215919    -0.74700
O1463       O  0.94121124  0.45326519  0.50873423    -0.74700
O1464       O  0.93982149  0.49813993  0.50460008    -0.74400
C1465       C  0.96420021  0.03158172  0.44666930     0.77300
C1466       C  0.57559555  0.04001445  0.45237818     0.77800
C1467       C  0.53397240  0.07715622  0.50943344     0.76800
C1468       C  0.53803719  0.47024301  0.51411168     0.77200
C1469       C  0.96621244  0.42694570  0.45429711     0.78300
C1470       C  0.92870004  0.47063125  0.51210067     0.77400
C1471       C  0.59875342  0.05152067  0.02700913    -0.03000
C1472       C  0.61301634  0.08415092  0.03156120    -0.05600
C1473       C  0.63907013  0.09840441  0.04397638    -0.20700
C1474       C  0.65140980  0.08044291  0.05229089     0.25100
C1475       C  0.63722594  0.04773345  0.04774415    -0.18200
C1476       C  0.61109955  0.03343230  0.03525376    -0.08200
C1477       C  0.67979939  0.09728498  0.06494611    -0.18500
C1478       C  0.68951022  0.08259287  0.07727677    -0.23300
C1479       C  0.71811595  0.10048412  0.08967661     0.27100
C1480       C  0.72022054  0.08635894  0.10655318    -0.20000
C1481       C  0.74686455  0.10262804  0.11850404    -0.09700
C1482       C  0.77186704  0.13349238  0.11385874    -0.10200
C1483       C  0.77012165  0.14715517  0.09673098    -0.03200
C1484       C  0.74369798  0.13089312  0.08473931    -0.18300
H1485       H  0.60416245  0.09882718  0.02545966     0.10800
H1486       H  0.64963754  0.12366056  0.04710709     0.10900
H1487       H  0.64647751  0.03317691  0.05343564     0.10500
H1488       H  0.60066636  0.00824583  0.03200197     0.11700
H1489       H  0.69244036  0.12322589  0.06454167     0.11700
H1490       H  0.67539127  0.05687191  0.07909799     0.13700
H1491       H  0.70119535  0.06267413  0.11050173     0.10200
H1492       H  0.74815393  0.09080072  0.13118592     0.12300
H1493       H  0.78926722  0.17042078  0.09246809     0.08900
H1494       H  0.74383103  0.14207454  0.07147051     0.11600
C1495       C  0.94955562  0.40191705  0.02684075    -0.03000
C1496       C  0.91780079  0.38971558  0.03326266    -0.05600
C1497       C  0.90459350  0.36520874  0.04664964    -0.20700
C1498       C  0.92263310  0.35211316  0.05401082     0.25100
C1499       C  0.95448114  0.36422802  0.04755895    -0.18200
C1500       C  0.96774631  0.38887187  0.03413743    -0.08200
C1501       C  0.90656630  0.32549445  0.06792000    -0.18500
C1502       C  0.92035656  0.31034494  0.07638318    -0.23300
C1503       C  0.90228410  0.28267954  0.08933001     0.27100
C1504       C  0.91923324  0.27570369  0.10291917    -0.20000
C1505       C  0.90290588  0.24951420  0.11506590    -0.09700
C1506       C  0.86939012  0.22976678  0.11369961    -0.10200
C1507       C  0.85246483  0.23641133  0.10006476    -0.03200
C1508       C  0.86867574  0.26246310  0.08791635    -0.18300
H1509       H  0.90308587  0.39921941  0.02802669     0.10800
H1510       H  0.88001487  0.35639614  0.05125551     0.10900
H1511       H  0.96938667  0.35494921  0.05266103     0.10500
H1512       H  0.99235561  0.39784281  0.02956808     0.11700
H1513       H  0.88176912  0.31812181  0.07138837     0.11700
H1514       H  0.94564733  0.31845506  0.07421561     0.13700
H1515       H  0.94513670  0.29058596  0.10415341     0.10200
H1516       H  0.91640873  0.24440782  0.12537587     0.12300
H1517       H  0.82662833  0.22160382  0.09890804     0.08900
H1518       H  0.85477794  0.26618234  0.07723219     0.11600
C1519       C  0.94989106  0.05201056  0.02442535    -0.03000
C1520       C  0.97034416  0.08360897  0.03054160    -0.05600
C1521       C  0.95919295  0.09846348  0.04283546    -0.20700
C1522       C  0.92742007  0.08214873  0.04948471     0.25100
C1523       C  0.90660080  0.05065381  0.04319140    -0.18200
C1524       C  0.91780543  0.03569931  0.03079618    -0.08200
C1525       C  0.91712905  0.09938398  0.06255520    -0.18500
C1526       C  0.89216301  0.08479752  0.07461120    -0.23300
C1527       C  0.88313332  0.10267555  0.08805181     0.27100
C1528       C  0.86490735  0.08684816  0.10414444    -0.20000
C1529       C  0.85531513  0.10264490  0.11688130    -0.09700
C1530       C  0.86388612  0.13460171  0.11373431    -0.10200
C1531       C  0.88205461  0.15048825  0.09769645    -0.03200
C1532       C  0.89145926  0.13470420  0.08490836    -0.18300
H1533       H  0.99519866  0.09696048  0.02593027     0.10800
H1534       H  0.97564615  0.12278304  0.04733713     0.10900
H1535       H  0.88164705  0.03762975  0.04757169     0.10500
H1536       H  0.90141009  0.01141420  0.02624744     0.11700
H1537       H  0.93223827  0.12520972  0.06300908     0.11700
H1538       H  0.87884122  0.05888342  0.07544167     0.13700
H1539       H  0.85789054  0.06211923  0.10679649     0.10200
H1540       H  0.84063289  0.08973527  0.12895601     0.12300
H1541       H  0.88862748  0.17507736  0.09492786     0.08900
H1542       H  0.90446821  0.14753072  0.07239365     0.11600
C1543       C  0.96976131  0.43859445  0.21079518    -0.03000
C1544       C  0.94842334  0.43353528  0.19594736    -0.05600
C1545       C  0.93453928  0.40495041  0.18564531    -0.20700
C1546       C  0.94150251  0.38072997  0.19009597     0.25100
C1547       C  0.96393000  0.38635754  0.20453493    -0.18200
C1548       C  0.97791542  0.41504075  0.21474902    -0.08200
C1549       C  0.92488507  0.35014578  0.17932858    -0.18500
C1550       C  0.91955666  0.32186224  0.18624124    -0.23300
C1551       C  0.90114536  0.29093984  0.17589322     0.27100
C1552       C  0.90551923  0.26521088  0.18089951    -0.20000
C1553       C  0.88892501  0.23588645  0.17135166    -0.09700
C1554       C  0.86761643  0.23177141  0.15663106    -0.10200
C1555       C  0.86208345  0.25692074  0.15218005    -0.03200
C1556       C  0.87864164  0.28618688  0.16166221    -0.18300
H1557       H  0.94162248  0.45115749  0.19270405     0.10800
H1558       H  0.91759399  0.40138251  0.17448171     0.10900
H1559       H  0.97093312  0.36887543  0.20792338     0.10500
H1560       H  0.49500888  0.41880238  0.22585475     0.11700
H1561       H  0.91567220  0.35104558  0.16547661     0.11700
H1562       H  0.92888173  0.32102863  0.20007734     0.13700
H1563       H  0.92227891  0.26800288  0.19200776     0.10200
H1564       H  0.89343750  0.21674680  0.17508088     0.12300
H1565       H  0.84499172  0.25395283  0.14124966     0.08900
H1566       H  0.87331609  0.30472349  0.15791598     0.11600
C1567       C  0.97524438  0.03866703  0.21058864    -0.03000
C1568       C  0.95740474  0.02509891  0.19402242    -0.05600
C1569       C  0.94499624  0.04113782  0.18362647    -0.20700
C1570       C  0.94982236  0.07083899  0.18976366     0.25100
C1571       C  0.96899200  0.08523638  0.20578443    -0.18200
C1572       C  0.98208339  0.06955723  0.21588106    -0.08200
C1573       C  0.93502657  0.08663459  0.17915507    -0.18500
C1574       C  0.91885348  0.09908556  0.18793355    -0.23300
C1575       C  0.90254438  0.11351896  0.17738204     0.27100
C1576       C  0.87281628  0.10899668  0.18379941    -0.20000
C1577       C  0.85664543  0.12168260  0.17369285    -0.09700
C1578       C  0.87016524  0.13944800  0.15713325    -0.10200
C1579       C  0.90086398  0.14559473  0.15142873    -0.03200
C1580       C  0.91666038  0.13238466  0.16125611    -0.18300
H1581       H  0.95228858  0.00175852  0.18934726     0.10800
H1582       H  0.93070926  0.02987119  0.17111457     0.10900
H1583       H  0.97391729  0.10863573  0.21042976     0.10500
H1584       H  0.99700752  0.08131505  0.22809156     0.11700
H1585       H  0.93520757  0.08570361  0.16379207     0.11700
H1586       H  0.91573378  0.09672980  0.20319800     0.13700
H1587       H  0.86172067  0.09492807  0.19637771     0.10200
H1588       H  0.83326885  0.11695624  0.17856054     0.12300
H1589       H  0.91259404  0.16044821  0.13921945     0.08900
H1590       H  0.94008871  0.13724782  0.15637093     0.11600
C1591       C  0.77107218  0.14025234  0.15670960    -0.03000
C1592       C  0.75062238  0.15244329  0.15272237    -0.05600
C1593       C  0.72040110  0.13937404  0.16130744    -0.20700
C1594       C  0.70979023  0.11357706  0.17387624     0.25100
C1595       C  0.73098971  0.10237904  0.17857898    -0.18200
C1596       C  0.76146638  0.11574770  0.17008724    -0.08200
C1597       C  0.67662354  0.09929879  0.18176420    -0.18500
C1598       C  0.65936631  0.06875882  0.18770841    -0.23300
C1599       C  0.62635467  0.05463709  0.19575090     0.27100
C1600       C  0.61631086  0.02974322  0.20892682    -0.20000
C1601       C  0.58614506  0.01674721  0.21755922    -0.09700
C1602       C  0.56527010  0.02823639  0.21308572    -0.10200
C1603       C  0.57435211  0.05181510  0.19913341    -0.03200
C1604       C  0.60474756  0.06506863  0.19056275    -0.18300
H1605       H  0.75775832  0.17155457  0.14252333     0.10800
H1606       H  0.70483516  0.14879580  0.15765193     0.10900
H1607       H  0.72417258  0.08331593  0.18873064     0.10500
H1608       H  0.77695691  0.10610200  0.17336665     0.11700
H1609       H  0.66584971  0.11439643  0.18217541     0.11700
H1610       H  0.67006120  0.05360223  0.18733058     0.13700
H1611       H  0.63223269  0.02092185  0.21294936     0.10200
H1612       H  0.57930968  0.49810786  0.22805020     0.12300
H1613       H  0.55838608  0.06070450  0.19535899     0.08900
H1614       H  0.61120021  0.08339270  0.17993772     0.11600
C1615       C  0.60452379  0.05579735  0.44015495    -0.03000
C1616       C  0.63362522  0.08148442  0.44688090    -0.05600
C1617       C  0.66031569  0.09710616  0.43485568    -0.20700
C1618       C  0.65859494  0.08682368  0.41609017     0.25100
C1619       C  0.62956209  0.06112412  0.40939021    -0.18200
C1620       C  0.60281188  0.04587985  0.42126685    -0.08200
C1621       C  0.68682046  0.10384680  0.40344300    -0.18500
C1622       C  0.69400533  0.08839534  0.39019481    -0.23300
C1623       C  0.72164322  0.10516057  0.37718082     0.27100
C1624       C  0.73962671  0.09060881  0.37227832    -0.20000
C1625       C  0.76582980  0.10592052  0.35999374    -0.09700
C1626       C  0.77353449  0.13534091  0.35188266    -0.10200
C1627       C  0.75530016  0.14972564  0.35639896    -0.03200
C1628       C  0.72956190  0.13480998  0.36909137    -0.18300
H1629       H  0.63557909  0.08986317  0.46130852     0.10800
H1630       H  0.68240670  0.11708749  0.44023567     0.10900
H1631       H  0.62727388  0.05322390  0.39483547     0.10500
H1632       H  0.58070065  0.02631998  0.41560648     0.11700
H1633       H  0.70269807  0.12937423  0.40554595     0.11700
H1634       H  0.68017122  0.06244105  0.38946400     0.13700
H1635       H  0.73374859  0.06767611  0.37825620     0.10200
H1636       H  0.78001685  0.09478187  0.35669068     0.12300
H1637       H  0.76127485  0.17260289  0.35029706     0.08900
H1638       H  0.71560428  0.14617769  0.37237411     0.11600
C1639       C  0.86851525  0.23138257  0.35217679    -0.03000
C1640       C  0.90124800  0.25372395  0.34952466    -0.05600
C1641       C  0.91719554  0.27945627  0.36199358    -0.20700
C1642       C  0.90079721  0.28308468  0.37741813     0.25100
C1643       C  0.86786222  0.26069977  0.37990428    -0.18200
C1644       C  0.85201556  0.23492682  0.36748110    -0.08200
C1645       C  0.91837543  0.31131233  0.38997595    -0.18500
C1646       C  0.90850454  0.31312376  0.40757286    -0.23300
C1647       C  0.92461058  0.34244154  0.41942903     0.27100
C1648       C  0.91907942  0.33991404  0.43904791    -0.20000
C1649       C  0.93277826  0.36722457  0.45052933    -0.09700
C1650       C  0.95212100  0.39764084  0.44254158    -0.10200
C1651       C  0.95744975  0.40012548  0.42289290    -0.03200
C1652       C  0.94377282  0.37294687  0.41146470    -0.18300
H1653       H  0.91455234  0.25097544  0.33798807     0.10800
H1654       H  0.94247757  0.29645020  0.35967151     0.10900
H1655       H  0.85400401  0.26317058  0.39116975     0.10500
H1656       H  0.82672391  0.21784188  0.36970106     0.11700
H1657       H  0.94061897  0.33102925  0.38450616     0.11700
H1658       H  0.88809245  0.29228700  0.41377491     0.13700
H1659       H  0.90403029  0.31673504  0.44550234     0.10200
H1660       H  0.92801139  0.36453869  0.46559609     0.12300
H1661       H  0.97192654  0.42321178  0.41622062     0.08900
H1662       H  0.94766769  0.37622497  0.39636827     0.11600
C1663       C  0.94974299  0.04259747  0.43219669    -0.03000
C1664       C  0.94912206  0.03402495  0.41310036    -0.05600
C1665       C  0.93634018  0.04506188  0.39926180    -0.20700
C1666       C  0.92426663  0.06517117  0.40415674     0.25100
C1667       C  0.92418576  0.07317956  0.42332670    -0.18200
C1668       C  0.93686078  0.06204066  0.43718956    -0.08200
C1669       C  0.91113758  0.07663975  0.38904148    -0.18500
C1670       C  0.91073027  0.10417828  0.39053333    -0.23300
C1671       C  0.89692983  0.11618526  0.37612428     0.27100
C1672       C  0.90415159  0.14805963  0.37760254    -0.20000
C1673       C  0.89040493  0.16022629  0.36522044    -0.09700
C1674       C  0.86923528  0.14080490  0.35104188    -0.10200
C1675       C  0.86188804  0.10893741  0.34936611    -0.03200
C1676       C  0.87561266  0.09663573  0.36182092    -0.18300
H1677       H  0.95858665  0.01880701  0.40880777     0.10800
H1678       H  0.93627173  0.03821010  0.38464609     0.10900
H1679       H  0.91395412  0.08764024  0.42775076     0.10500
H1680       H  0.93672840  0.06881299  0.45179344     0.11700
H1681       H  0.90298658  0.06262755  0.37613984     0.11700
H1682       H  0.92177419  0.11931862  0.40280930     0.13700
H1683       H  0.92024465  0.16356058  0.38853936     0.10200
H1684       H  0.89616361  0.18485365  0.36677041     0.12300
H1685       H  0.84497520  0.09343813  0.33873974     0.08900
H1686       H  0.86862229  0.07170115  0.36049198     0.11600
C1687       C  0.86592034  0.23372667  0.30925021    -0.03000
C1688       C  0.89005056  0.24025562  0.29589573    -0.05600
C1689       C  0.90645853  0.27026525  0.28716138    -0.20700
C1690       C  0.89852608  0.29393968  0.29134007     0.25100
C1691       C  0.87358061  0.28688070  0.30433158    -0.18200
C1692       C  0.85743476  0.25702768  0.31316325    -0.08200
C1693       C  0.91787881  0.32620704  0.28277351    -0.18500
C1694       C  0.90649414  0.34633423  0.28008702    -0.23300
C1695       C  0.92603589  0.37824204  0.27123368     0.27100
C1696       C  0.91079088  0.39001442  0.25948992    -0.20000
C1697       C  0.92875372  0.41937106  0.25029354    -0.09700
C1698       C  0.96214887  0.43776545  0.25304914    -0.10200
C1699       C  0.97727617  0.42681520  0.26544519    -0.03200
C1700       C  0.95940421  0.39715674  0.27440913    -0.18300
H1701       H  0.89708230  0.22262794  0.29283241     0.10800
H1702       H  0.92568225  0.27516453  0.27728859     0.10900
H1703       H  0.86726604  0.30468514  0.30827170     0.10500
H1704       H  0.83886113  0.25237062  0.32347494     0.11700
H1705       H  0.94192965  0.33308407  0.27779655     0.11700
H1706       H  0.88144136  0.33844716  0.28318573     0.13700
H1707       H  0.88508016  0.37603108  0.25700444     0.10200
H1708       H  0.91670965  0.42758949  0.24079879     0.12300
H1709       H  0.50302320  0.44063739  0.26765289     0.08900
H1710       H  0.97166855  0.38905524  0.28379108     0.11600
C1711       C  0.96830221  0.03296978  0.25372403    -0.03000
C1712       C  0.98455076  0.05266354  0.26920591    -0.05600
C1713       C  0.97091064  0.06792197  0.27925616    -0.20700
C1714       C  0.94088091  0.06389856  0.27395728     0.25100
C1715       C  0.92387048  0.04274744  0.25904596    -0.18200
C1716       C  0.93743160  0.02734480  0.24910334    -0.08200
C1717       C  0.92814578  0.08198776  0.28438689    -0.18500
C1718       C  0.90671388  0.08927113  0.27697837    -0.23300
C1719       C  0.89447682  0.10779743  0.28737011     0.27100
C1720       C  0.86393044  0.10311926  0.28277664    -0.20000
C1721       C  0.85097752  0.11902584  0.29282741    -0.09700
C1722       C  0.86847288  0.14005472  0.30756144    -0.10200
C1723       C  0.89985385  0.14637096  0.31135636    -0.03200
C1724       C  0.91270240  0.13028365  0.30144936    -0.18300
H1725       H  0.00824787  0.05705697  0.27313281     0.10800
H1726       H  0.98427130  0.08363635  0.29088380     0.10900
H1727       H  0.90007552  0.03783721  0.25504318     0.10500
H1728       H  0.92404853  0.01142011  0.23756148     0.11700
H1729       H  0.93757044  0.09028958  0.29850060     0.11700
H1730       H  0.89712043  0.08095056  0.26290679     0.13700
H1731       H  0.84965998  0.08638493  0.27175163     0.10200
H1732       H  0.82683872  0.11403057  0.28955128     0.12300
H1733       H  0.91425961  0.16340985  0.32221341     0.08900
H1734       H  0.93691434  0.13569065  0.30479251     0.11600
C1735       C  0.56257983  0.03224388  0.25558552    -0.03000
C1736       C  0.56680457  0.01542002  0.27037834    -0.05600
C1737       C  0.59595529  0.02905342  0.28034615    -0.20700
C1738       C  0.62131950  0.05976222  0.27573099     0.25100
C1739       C  0.61611007  0.07731668  0.26168910    -0.18200
C1740       C  0.58705551  0.06366997  0.25176793    -0.08200
C1741       C  0.65256689  0.07270426  0.28595383    -0.18500
C1742       C  0.68074993  0.09665717  0.27923175    -0.23300
C1743       C  0.71190614  0.10980045  0.28948109     0.27100
C1744       C  0.73617752  0.14147136  0.28587833    -0.20000
C1745       C  0.76558140  0.15499309  0.29553251    -0.09700
C1746       C  0.77125557  0.13701102  0.30890831    -0.10200
C1747       C  0.74768506  0.10490149  0.31187502    -0.03200
C1748       C  0.71824228  0.09140329  0.30231726    -0.18300
H1749       H  0.54811236  0.49135855  0.27375691     0.10800
H1750       H  0.59902082  0.01522422  0.29135172     0.10900
H1751       H  0.63421782  0.10159132  0.25826995     0.10500
H1752       H  0.58387761  0.07748249  0.24080084     0.11700
H1753       H  0.65222032  0.06164138  0.29937086     0.11700
H1754       H  0.68129865  0.10784104  0.26584556     0.13700
H1755       H  0.73210118  0.15600873  0.27584930     0.10200
H1756       H  0.78356077  0.17974464  0.29293890     0.12300
H1757       H  0.75206474  0.09021246  0.32158955     0.08900
H1758       H  0.70077423  0.06652462  0.30485779     0.11600
C1759       C  0.63239596  0.26984515  0.85023641    -0.03000
C1760       C  0.64086650  0.24630569  0.84708994    -0.05600
C1761       C  0.62819574  0.21908300  0.85855982    -0.20700
C1762       C  0.60737444  0.21522646  0.87358801     0.25100
C1763       C  0.59873061  0.23872050  0.87660466    -0.18200
C1764       C  0.61132869  0.26582702  0.86511947    -0.08200
C1765       C  0.59448913  0.18617087  0.88557150    -0.18500
C1766       C  0.58591356  0.18563587  0.90379201    -0.23300
C1767       C  0.57298090  0.15667313  0.91585530     0.27100
C1768       C  0.57717573  0.16031165  0.93553865    -0.20000
C1769       C  0.56480635  0.13353794  0.94736931    -0.09700
C1770       C  0.54761295  0.10253050  0.93973672    -0.10200
C1771       C  0.54311034  0.09893887  0.92002264    -0.03200
C1772       C  0.55557771  0.12567991  0.90821268    -0.18300
H1773       H  0.65759620  0.24918156  0.83592918     0.10800
H1774       H  0.63509899  0.20124821  0.85590006     0.10900
H1775       H  0.58195614  0.23610054  0.88765904     0.10500
H1776       H  0.60444971  0.28360989  0.86783687     0.11700
H1777       H  0.59364588  0.16514530  0.87944194     0.11700
H1778       H  0.58991145  0.20758379  0.91047268     0.13700
H1779       H  0.59026623  0.18396389  0.94177002     0.10200
H1780       H  0.56868030  0.13714272  0.96248230     0.12300
H1781       H  0.52977147  0.07540733  0.91367492     0.08900
H1782       H  0.55097481  0.12196076  0.89317221     0.11600
C1783       C  0.90211135  0.44458574  0.93723642    -0.03000
C1784       C  0.90865588  0.44311021  0.91796882    -0.05600
C1785       C  0.88373859  0.42908229  0.90481701    -0.20700
C1786       C  0.85163391  0.41637802  0.91048715     0.25100
C1787       C  0.84483966  0.41703792  0.92985198    -0.18200
C1788       C  0.86989930  0.43108339  0.94309207    -0.08200
C1789       C  0.82627898  0.40254049  0.89568482    -0.18500
C1790       C  0.79681338  0.39907856  0.89772015    -0.23300
C1791       C  0.77212791  0.38707520  0.88247840     0.27100
C1792       C  0.74633066  0.39284193  0.88412614    -0.20000
C1793       C  0.72221276  0.38166852  0.87040088    -0.09700
C1794       C  0.72339995  0.36451113  0.85470663    -0.10200
C1795       C  0.74902003  0.35854480  0.85295689    -0.03200
C1796       C  0.77314895  0.36960388  0.86673701    -0.18300
H1797       H  0.93316295  0.45300433  0.91295099     0.10800
H1798       H  0.88965888  0.42860999  0.89005933     0.10900
H1799       H  0.82033743  0.40655358  0.93490691     0.10500
H1800       H  0.86407509  0.43159570  0.95785345     0.11700
H1801       H  0.83320361  0.39716024  0.88216780     0.11700
H1802       H  0.79092718  0.40702440  0.91071138     0.13700
H1803       H  0.74477903  0.40600863  0.89611685     0.10200
H1804       H  0.70250760  0.38634488  0.87208139     0.12300
H1805       H  0.74983708  0.34449664  0.84123560     0.08900
H1806       H  0.79188566  0.36358538  0.86516560     0.11600
C1807       C  0.56116770  0.46270923  0.93887475    -0.03000
C1808       C  0.57262396  0.47921183  0.92166833    -0.05600
C1809       C  0.58751622  0.46947666  0.90840589    -0.20700
C1810       C  0.59073284  0.44269022  0.91187373     0.25100
C1811       C  0.58049653  0.42690052  0.92941855    -0.18200
C1812       C  0.56594737  0.43695184  0.94285033    -0.08200
C1813       C  0.60461732  0.43183809  0.89681423    -0.18500
C1814       C  0.59590474  0.40091296  0.89444062    -0.23300
C1815       C  0.60795648  0.38910475  0.87883113     0.27100
C1816       C  0.59006496  0.35659692  0.87393173    -0.20000
C1817       C  0.60133640  0.34390818  0.86014651    -0.09700
C1818       C  0.63069099  0.36350126  0.85104626    -0.10200
C1819       C  0.64845403  0.39608410  0.85553971    -0.03200
C1820       C  0.63725033  0.40887031  0.86937240    -0.18300
H1821       H  0.56974117  0.49951721  0.91835124     0.10800
H1822       H  0.59564748  0.48231840  0.89513960     0.10900
H1823       H  0.58364040  0.40679739  0.93278900     0.10500
H1824       H  0.55759757  0.42402940  0.95606843     0.11700
H1825       H  0.62027194  0.44947413  0.88652997     0.11700
H1826       H  0.57778219  0.38307953  0.90374156     0.13700
H1827       H  0.56750744  0.34085761  0.88099931     0.10200
H1828       H  0.58743890  0.31867371  0.85680477     0.12300
H1829       H  0.67160469  0.41126372  0.84891339     0.08900
H1830       H  0.65222342  0.43381670  0.87308259     0.11600
C1831       C  0.93529356  0.46918715  0.75263449    -0.03000
C1832       C  0.92741874  0.44255083  0.76403270    -0.05600
C1833       C  0.89767242  0.42658053  0.77333200    -0.20700
C1834       C  0.87529861  0.43710626  0.77166473     0.25100
C1835       C  0.88355778  0.46436175  0.76055066    -0.18200
C1836       C  0.91327569  0.48016974  0.75109090    -0.08200
C1837       C  0.84293060  0.41765089  0.78058781    -0.18500
C1838       C  0.82344033  0.42917234  0.78537603    -0.23300
C1839       C  0.79121234  0.40901083  0.79429191     0.27100
C1840       C  0.77945294  0.42318383  0.80695353    -0.20000
C1841       C  0.74945876  0.40485687  0.81572530    -0.09700
C1842       C  0.73031538  0.37207235  0.81174519    -0.10200
C1843       C  0.74142307  0.35802340  0.79861696    -0.03200
C1844       C  0.77168368  0.37623823  0.79004211    -0.18300
H1845       H  0.94344038  0.43302287  0.76492550     0.10800
H1846       H  0.89186323  0.40547919  0.78158601     0.10900
H1847       H  0.86672587  0.47279266  0.75851554     0.10500
H1848       H  0.91877372  0.50047557  0.74215220     0.11700
H1849       H  0.83539917  0.39296496  0.78399409     0.11700
H1850       H  0.83196229  0.45451387  0.78374484     0.13700
H1851       H  0.79377089  0.44840487  0.81031388     0.10200
H1852       H  0.74116461  0.41623799  0.82568480     0.12300
H1853       H  0.72703257  0.33282765  0.79532377     0.08900
H1854       H  0.77956801  0.36471481  0.77994838     0.11600
C1855       C  0.63460322  0.36750577  0.80803905    -0.03000
C1856       C  0.65454206  0.39136556  0.79516956    -0.05600
C1857       C  0.64308522  0.40886994  0.78537476    -0.20700
C1858       C  0.61156017  0.40290542  0.78832407     0.25100
C1859       C  0.59118931  0.37791744  0.80059353    -0.18200
C1860       C  0.60264300  0.36046886  0.81034081    -0.08200
C1861       C  0.60036338  0.42243402  0.77800625    -0.18500
C1862       C  0.57698830  0.42765594  0.78464885    -0.23300
C1863       C  0.56387198  0.44539710  0.77416507     0.27100
C1864       C  0.53327538  0.44017824  0.77918183    -0.20000
C1865       C  0.51889979  0.45455866  0.76902746    -0.09700
C1866       C  0.53473935  0.47439804  0.75353583    -0.10200
C1867       C  0.56632293  0.48154892  0.74934031    -0.03200
C1868       C  0.58071253  0.46707467  0.75944760    -0.18300
H1869       H  0.67924862  0.39709379  0.79312951     0.10800
H1870       H  0.65911166  0.42760637  0.77577695     0.10900
H1871       H  0.56631486  0.37151785  0.80258642     0.10500
H1872       H  0.58652311  0.34147406  0.81975653     0.11700
H1873       H  0.61202750  0.43283027  0.76463981     0.11700
H1874       H  0.56588867  0.41745289  0.79818376     0.13700
H1875       H  0.51997441  0.42414889  0.79070134     0.10200
H1876       H  0.99505034  0.44933519  0.77295509     0.12300
H1877       H  0.57965361  0.99787905  0.73794518     0.08900
H1878       H  0.60490066  0.47297303  0.75564318     0.11600
C1879       C  0.63359326  0.27200598  0.80697562    -0.03000
C1880       C  0.65147118  0.26760232  0.79281695    -0.05600
C1881       C  0.63817595  0.23873965  0.78275484    -0.20700
C1882       C  0.60679664  0.21376566  0.78667836     0.25100
C1883       C  0.58831164  0.21899158  0.80016772    -0.18200
C1884       C  0.60157582  0.24784074  0.81013949    -0.08200
C1885       C  0.59405485  0.18299073  0.77618890    -0.18500
C1886       C  0.57012940  0.15472986  0.78274743    -0.23300
C1887       C  0.55714194  0.12388861  0.77228359     0.27100
C1888       C  0.52615692  0.09869566  0.77680930    -0.20000
C1889       C  0.51263740  0.06962509  0.76695970    -0.09700
C1890       C  0.52990045  0.06523224  0.75240841    -0.10200
C1891       C  0.56140637  0.08977004  0.74843189    -0.03200
C1892       C  0.57492362  0.11880032  0.75822869    -0.18300
H1893       H  0.67605253  0.28598222  0.79000200     0.10800
H1894       H  0.65275625  0.23559451  0.77220156     0.10900
H1895       H  0.56358036  0.20105159  0.80302968     0.10500
H1896       H  0.58697276  0.25110301  0.82061977     0.11700
H1897       H  0.60536308  0.18387535  0.76273552     0.11700
H1898       H  0.55897175  0.15394321  0.79624730     0.13700
H1899       H  0.51209355  0.10175792  0.78774952     0.10200
H1900       H  0.98838232  0.05091752  0.77032529     0.12300
H1901       H  0.57552141  0.08650231  0.73761882     0.08900
H1902       H  0.59933956  0.13691168  0.75482124     0.11600
C1903       C  0.54693499  0.10619593  0.52128243    -0.03000
C1904       C  0.53486221  0.12726163  0.51967709    -0.05600
C1905       C  0.54725013  0.15468207  0.53099207    -0.20700
C1906       C  0.57108493  0.16085279  0.54446540     0.25100
C1907       C  0.58316547  0.13985886  0.54610724    -0.18200
C1908       C  0.57141316  0.11292819  0.53448824    -0.08200
C1909       C  0.58391126  0.18972439  0.55641234    -0.18500
C1910       C  0.58774244  0.18840396  0.57514244    -0.23300
C1911       C  0.60206674  0.21731683  0.58712221     0.27100
C1912       C  0.58872542  0.21647435  0.60488856    -0.20000
C1913       C  0.60267633  0.24342858  0.61660756    -0.09700
C1914       C  0.63131616  0.27116557  0.61122288    -0.10200
C1915       C  0.64434173  0.27183205  0.59326297    -0.03200
C1916       C  0.62978615  0.24530379  0.58129756    -0.18300
H1917       H  0.51611425  0.12271645  0.50954520     0.10800
H1918       H  0.53786059  0.17080136  0.52946868     0.10900
H1919       H  0.60200486  0.14455232  0.55620749     0.10500
H1920       H  0.58117058  0.09712410  0.53602937     0.11700
H1921       H  0.58919565  0.21216991  0.54984789     0.11700
H1922       H  0.57929788  0.16538502  0.58194661     0.13700
H1923       H  0.56714025  0.19512535  0.60953822     0.10200
H1924       H  0.59076332  0.24249141  0.62976937     0.12300
H1925       H  0.66601146  0.29266523  0.58838181     0.08900
H1926       H  0.64071622  0.24635688  0.56769768     0.11600
C1927       C  0.90125259  0.45904896  0.52541748    -0.03000
C1928       C  0.88473440  0.47599324  0.52780964    -0.05600
C1929       C  0.85994932  0.46597744  0.54111313    -0.20700
C1930       C  0.85100394  0.43876432  0.55223591     0.25100
C1931       C  0.86768022  0.42190437  0.54992864    -0.18200
C1932       C  0.89233176  0.43181066  0.53656434    -0.08200
C1933       C  0.82467059  0.42906559  0.56630127    -0.18500
C1934       C  0.80672109  0.39876243  0.57246537    -0.23300
C1935       C  0.77933488  0.38766579  0.58590382     0.27100
C1936       C  0.75831566  0.35458393  0.58755555    -0.20000
C1937       C  0.73214315  0.34256834  0.59987489    -0.09700
C1938       C  0.72654957  0.36335526  0.61090376    -0.10200
C1939       C  0.74759834  0.39641171  0.60965146    -0.03200
C1940       C  0.77391442  0.40857839  0.59725341    -0.18300
H1941       H  0.89108440  0.49714468  0.51948354     0.10800
H1942       H  0.84764369  0.47949315  0.54268245     0.10900
H1943       H  0.86237922  0.40149294  0.55867261     0.10500
H1944       H  0.90489758  0.41851284  0.53527714     0.11700
H1945       H  0.81892068  0.44711721  0.57073210     0.11700
H1946       H  0.81106952  0.38048051  0.56663331     0.13700
H1947       H  0.76212876  0.33789760  0.57925296     0.10200
H1948       H  0.71671847  0.31695378  0.60118099     0.12300
H1949       H  0.74360809  0.41269359  0.61824328     0.08900
H1950       H  0.78994634  0.43416346  0.59685741     0.11600
C1951       C  0.63247307  0.36469481  0.61372454    -0.03000
C1952       C  0.60048527  0.35668502  0.61718001    -0.05600
C1953       C  0.58552790  0.36886969  0.60562535    -0.20700
C1954       C  0.60220758  0.38914403  0.59039010     0.25100
C1955       C  0.63426045  0.39691351  0.58694211    -0.18200
C1956       C  0.64918181  0.38483925  0.59853785    -0.08200
C1957       C  0.58486974  0.40015943  0.57781784    -0.18500
C1958       C  0.59998578  0.42533970  0.56605126    -0.23300
C1959       C  0.58304437  0.43584605  0.55285881     0.27100
C1960       C  0.59997096  0.46713692  0.54578163    -0.20000
C1961       C  0.58539621  0.47813746  0.53314033    -0.09700
C1962       C  0.55349897  0.45799453  0.52715407    -0.10200
C1963       C  0.53663957  0.42641044  0.53394489    -0.03200
C1964       C  0.55128079  0.41537093  0.54661827    -0.18300
H1965       H  0.58693470  0.34058619  0.62860401     0.10800
H1966       H  0.56073816  0.36216839  0.60847066     0.10900
H1967       H  0.64775428  0.41148808  0.57502740     0.10500
H1968       H  0.67379759  0.39103883  0.59555317     0.11700
H1969       H  0.55878092  0.38741462  0.57869177     0.11700
H1970       H  0.62602842  0.43989006  0.56646225     0.13700
H1971       H  0.62457078  0.48327423  0.55015864     0.10200
H1972       H  0.59920144  0.00256580  0.52810400     0.12300
H1973       H  0.51214736  0.41018419  0.52944631     0.08900
H1974       H  0.53778067  0.39073177  0.55119638     0.11600
C1975       C  0.63761501  0.26976566  0.65447669    -0.03000
C1976       C  0.65103827  0.25026691  0.65107606    -0.05600
C1977       C  0.63796850  0.22021762  0.65962411    -0.20700
C1978       C  0.61095808  0.20887933  0.67151061     0.25100
C1979       C  0.59856421  0.22919716  0.67565289    -0.18200
C1980       C  0.61194224  0.25947100  0.66725399    -0.08200
C1981       C  0.59670774  0.17593515  0.67935512    -0.18500
C1982       C  0.56543897  0.15785636  0.68428052    -0.23300
C1983       C  0.55133200  0.12500444  0.69228282     0.27100
C1984       C  0.52429634  0.11366665  0.70413632    -0.20000
C1985       C  0.51156136  0.08386097  0.71296035    -0.09700
C1986       C  0.52535688  0.06456235  0.70993644    -0.10200
C1987       C  0.55113050  0.07489314  0.69723027    -0.03200
C1988       C  0.56408694  0.10487749  0.68847787    -0.18300
H1989       H  0.67102680  0.25795070  0.64133259     0.10800
H1990       H  0.64832112  0.20532042  0.65643541     0.10900
H1991       H  0.57851568  0.22180318  0.68527408     0.10500
H1992       H  0.60127846  0.27417285  0.67003936     0.11700
H1993       H  0.61257023  0.16608655  0.68060607     0.11700
H1994       H  0.54958637  0.16772543  0.68302986     0.13700
H1995       H  0.51366418  0.12839232  0.70709563     0.10200
H1996       H  0.99147193  0.07620117  0.72262070     0.12300
H1997       H  0.56214292  0.06044477  0.69470851     0.08900
H1998       H  0.58415540  0.11222189  0.67888055     0.11600
C1999       C  0.93585828  0.46595730  0.70962744    -0.03000
C2000       C  0.93205545  0.48071414  0.69351393    -0.05600
C2001       C  0.90373270  0.46519806  0.68277450    -0.20700
C2002       C  0.87852837  0.43499384  0.68819527     0.25100
C2003       C  0.88272713  0.41976668  0.70392676    -0.18200
C2004       C  0.91133009  0.43487639  0.71432550    -0.08200
C2005       C  0.84822213  0.41942657  0.67713077    -0.18500
C2006       C  0.81914083  0.40477137  0.68556664    -0.23300
C2007       C  0.78866556  0.39020745  0.67465887     0.27100
C2008       C  0.76289319  0.39371583  0.68103604    -0.20000
C2009       C  0.73404016  0.38045382  0.67079166    -0.09700
C2010       C  0.73021066  0.36283856  0.65421237    -0.10200
C2011       C  0.75549722  0.35792047  0.64845589    -0.03200
C2012       C  0.78462927  0.37195123  0.65835467    -0.18300
H2013       H  0.95068730  0.50451572  0.68946597     0.10800
H2014       H  0.90110281  0.47715984  0.67053215     0.10900
H2015       H  0.86404468  0.39601564  0.70802073     0.10500
H2016       H  0.91421689  0.42220925  0.72607231     0.11700
H2017       H  0.84979454  0.42200644  0.66182928     0.11700
H2018       H  0.81766822  0.40530674  0.70090225     0.13700
H2019       H  0.76537782  0.40735557  0.69373488     0.10200
H2020       H  0.71490670  0.38440646  0.67566708     0.12300
H2021       H  0.75274288  0.34293956  0.63641793     0.08900
H2022       H  0.80374127  0.36793599  0.65351444     0.11600
C2023       C  0.53189759  0.47033515  0.71031526    -0.03000
C2024       C  0.55246418  0.48659925  0.69512960    -0.05600
C2025       C  0.56820978  0.47311217  0.68537259    -0.20700
C2026       C  0.56375633  0.44310094  0.69060664     0.25100
C2027       C  0.54168086  0.42603758  0.70515945    -0.18200
C2028       C  0.52581731  0.43946537  0.71480149    -0.08200
C2029       C  0.58203857  0.43026841  0.68031897    -0.18500
C2030       C  0.58793607  0.40779025  0.68746382    -0.23300
C2031       C  0.60580846  0.39466827  0.67705517     0.27100
C2032       C  0.60010625  0.36398890  0.68173371    -0.20000
C2033       C  0.61523071  0.35012743  0.67171512    -0.09700
C2034       C  0.63639774  0.36671356  0.65684029    -0.10200
C2035       C  0.64373423  0.39817673  0.65292865    -0.03200
C2036       C  0.62852511  0.41200047  0.66285114    -0.18300
H2037       H  0.55715305  0.51014407  0.69117208     0.10800
H2038       H  0.58454753  0.48653178  0.67397794     0.10900
H2039       H  0.53631009  0.40225388  0.70909546     0.10500
H2040       H  0.50913949  0.42592035  0.72602834     0.11700
H2041       H  0.59130855  0.44021744  0.66643725     0.11700
H2042       H  0.57867885  0.39777048  0.70132526     0.13700
H2043       H  0.58316707  0.35032062  0.69283118     0.09200
H2044       H  0.60946520  0.32603080  0.67513671     0.12300
H2045       H  0.66079996  0.41184771  0.64188789     0.08900
H2046       H  0.63473856  0.43621495  0.65937002     0.11600
C2047       C  0.66609236  0.83292202  0.65242824     0.45700
H2048       H  0.66681736  0.83228342  0.66812585    -0.03400
C2049       C  0.66426846  0.83389459  0.61564124     0.45700
H2050       H  0.66355184  0.83484084  0.59996873    -0.03400
C2051       C  0.64921301  0.85055611  0.64460237    -0.17000
C2052       C  0.69976857  0.84958860  0.64308780    -0.16800
C2053       C  0.64852410  0.79937991  0.64328841    -0.17200
C2054       C  0.64820288  0.85073766  0.62517819    -0.17200
C2055       C  0.69844496  0.84998177  0.62365944    -0.16700
C2056       C  0.64721046  0.79990331  0.62379889    -0.17000
C2057       C  0.66634489  0.83547803  0.81144008     0.45700
H2058       H  0.66832796  0.83691676  0.79576374    -0.03400
C2059       C  0.66141390  0.83224841  0.84817386     0.45700
H2060       H  0.65941995  0.83099034  0.86386078    -0.03400
C2061       C  0.69913194  0.85251113  0.82174718    -0.17000
C2062       C  0.64753402  0.85098057  0.81971349    -0.16800
C2063       C  0.64868341  0.80087717  0.81924708    -0.17200
C2064       C  0.69624967  0.85059862  0.84112255    -0.17200
C2065       C  0.64501526  0.84894209  0.83906667    -0.16700
C2066       C  0.64655791  0.79948706  0.83868337    -0.17000
C2067       C  0.49946374  0.50143853  0.71289779     0.45700
H2068       H  0.49960532  0.50119075  0.69717840    -0.03400
C2069       C  0.49904087  0.50190736  0.74982635     0.45700
H2070       H  0.99892798  0.50233358  0.76554823    -0.03400
C2071       C  0.51763609  0.98597151  0.72189490    -0.17000
C2072       C  0.51462889  0.53520702  0.72147779    -0.16800
C2073       C  0.96536371  0.98304093  0.72152768    -0.17200
C2074       C  0.51775397  0.98659116  0.74141853    -0.17200
C2075       C  0.51483361  0.53543146  0.74092651    -0.16700
C2076       C  0.96517476  0.98361500  0.74101416    -0.17000
C2077       C  0.83519500  0.67023001  0.31123821     0.45700
H2078       H  0.83497054  0.67069601  0.29552009    -0.03400
C2079       C  0.83575631  0.66938022  0.34808443     0.45700
H2080       H  0.83583285  0.66887638  0.36381823    -0.03400
C2081       C  0.80136174  0.65220153  0.32021126    -0.17000
C2082       C  0.85321344  0.65403577  0.31954935    -0.16800
C2083       C  0.85155297  0.70373527  0.32036683    -0.17200
C2084       C  0.80200940  0.65179600  0.33961024    -0.17200
C2085       C  0.85343740  0.65384778  0.33901758    -0.16700
C2086       C  0.85184936  0.70304864  0.33978956    -0.17000
C2087       C  0.83482271  0.66755984  0.11744102     0.45700
H2088       H  0.83494255  0.66731211  0.10172635    -0.03400
C2089       C  0.83505324  0.66811532  0.15429946     0.45700
H2090       H  0.83504452  0.66858519  0.17001637    -0.03400
C2091       C  0.80102089  0.65060256  0.12603449    -0.17000
C2092       C  0.85156013  0.65078067  0.12612797    -0.16800
C2093       C  0.85207383  0.70122970  0.12591505    -0.17200
C2094       C  0.80095852  0.65133020  0.14549253    -0.17200
C2095       C  0.85227566  0.65127405  0.14561560    -0.16700
C2096       C  0.85218406  0.70176455  0.14534520    -0.17000
C2097       C  0.50175894  0.50194419  0.21427886     0.45700
H2098       H  0.50319988  0.50239379  0.19858036    -0.03400
C2099       C  0.49907815  0.50068386  0.25120642     0.45700
H2100       H  0.49776956  0.49999981  0.26691476    -0.03400
C2101       C  0.98590967  0.52027917  0.22260845    -0.17000
C2102       C  0.98289658  0.96797630  0.22258463    -0.16800
C2103       C  0.53490314  0.51680539  0.22388247    -0.17200
C2104       C  0.98404903  0.51902580  0.24211024    -0.17200
C2105       C  0.98128909  0.96742660  0.24198825    -0.16700
C2106       C  0.53354938  0.51667972  0.24333465    -0.17000
Zn2107     Zn  0.50140537  0.50215532  0.95503591     1.49700
Zn2108     Zn  0.52207789  0.54476357  0.99120365     1.49400
Zn2109     Zn  0.95486102  0.97811966  0.99090746     1.49100
Zn2110     Zn  0.52253908  0.97842682  0.99153229     1.49500
O2111       O  0.50006695  0.50059601  0.98239796    -1.83900
O2112       O  0.51962626  0.54634636  0.94461969    -0.74500
O2113       O  0.99222324  0.55255824  0.00692242    -0.74400
O2114       O  0.92385366  0.96000400  0.96853606    -0.73900
O2115       O  0.53822410  0.57727095  0.96996424    -0.74600
O2116       O  0.95761075  0.97555390  0.94416912    -0.74200
O2117       O  0.94486142  0.50762181  0.00646030    -0.74700
O2118       O  0.99265222  0.93983079  0.00745174    -0.74100
O2119       O  0.55930244  0.55347183  0.00780547    -0.74900
O2120       O  0.94716343  0.94146566  0.00799533    -0.74300
O2121       O  0.55945986  0.50762338  0.00877150    -0.74700
O2122       O  0.54154769  0.96558966  0.96959268    -0.74700
O2123       O  0.52925203  0.98609093  0.94503523    -0.74400
C2124       C  0.53446570  0.57396556  0.95210827     0.77300
C2125       C  0.96280489  0.53649647  0.01186535     0.77800
C2126       C  0.92913270  0.96076196  0.95077862     0.76800
C2127       C  0.96382846  0.92897974  0.01325731     0.77200
C2128       C  0.57111424  0.53670837  0.01380372     0.78300
C2129       C  0.54310439  0.97186802  0.95195096     0.77400
Zn2130     Zn  0.97770632  0.52509172  0.48768533     1.49700
Zn2131     Zn  0.50304189  0.49920304  0.45439333     1.49400
Zn2132     Zn  0.54497549  0.52663209  0.49131266     1.49100
Zn2133     Zn  0.97862419  0.95928644  0.49259598     1.49500
O2134       O  0.50097607  0.50247620  0.48164734    -1.83900
O2135       O  0.96149522  0.53622663  0.46416346    -0.74500
O2136       O  0.54829741  0.52252480  0.44467988    -0.74400
O2137       O  0.55083901  0.56386890  0.50696046    -0.73900
O2138       O  0.97940679  0.51773544  0.44125840    -0.74600
O2139       O  0.50608135  0.56576408  0.50210035    -0.74200
O2140       O  0.57819976  0.54432689  0.47024451    -0.74700
O2141       O  0.50868338  0.95232532  0.50937988    -0.74100
O2142       O  0.98240721  0.95382349  0.44611431    -0.74900
O2143       O  0.55450966  0.99880595  0.50797945    -0.74300
O2144       O  0.96186260  0.92506103  0.47217062    -0.74700
O2145       O  0.94123773  0.95326926  0.50874555    -0.74700
O2146       O  0.93984465  0.99814073  0.50460225    -0.74400
C2147       C  0.96420123  0.53158509  0.44666910     0.77300
C2148       C  0.57559504  0.54002036  0.45239383     0.77800
C2149       C  0.53395018  0.57715548  0.50943334     0.76800
C2150       C  0.53807372  0.97024674  0.51409435     0.77200
C2151       C  0.96622341  0.92693713  0.45430817     0.78300
C2152       C  0.92872501  0.97063564  0.51210750     0.77400
C2153       C  0.59880348  0.55153385  0.02698283    -0.03000
C2154       C  0.61309584  0.58417610  0.03150992    -0.05600
C2155       C  0.63916134  0.59843791  0.04391637    -0.20700
C2156       C  0.65148189  0.58047262  0.05224778     0.25100
C2157       C  0.63727045  0.54775166  0.04772520    -0.18200
C2158       C  0.61113331  0.53344226  0.03524264    -0.08200
C2159       C  0.67987817  0.59731837  0.06489726    -0.18500
C2160       C  0.68953668  0.58262995  0.07726373    -0.23300
C2161       C  0.71813579  0.60051455  0.08966967     0.27100
C2162       C  0.72019730  0.58640186  0.10656222    -0.20000
C2163       C  0.74683540  0.60265659  0.11851850    -0.09700
C2164       C  0.77187376  0.63349874  0.11386559    -0.10200
C2165       C  0.77016646  0.64715277  0.09672453    -0.03200
C2166       C  0.74375105  0.63090063  0.08472532    -0.18300
H2167       H  0.60425578  0.59885511  0.02539555     0.10800
H2168       H  0.64975078  0.62370255  0.04702859     0.10900
H2169       H  0.64650939  0.53319260  0.05343015     0.10500
H2170       H  0.60067800  0.50824685  0.03200961     0.11700
H2171       H  0.69255972  0.62325846  0.06446145     0.11700
H2172       H  0.67537233  0.55691704  0.07911151     0.13700
H2173       H  0.70114476  0.56273469  0.11051784     0.10200
H2174       H  0.74809207  0.59083113  0.13120960     0.12300
H2175       H  0.78933702  0.67040359  0.09245615     0.08900
H2176       H  0.74391684  0.64207157  0.07144627     0.11600
C2177       C  0.94954520  0.90191135  0.02684734    -0.03000
C2178       C  0.91780251  0.88973765  0.03328515    -0.05600
C2179       C  0.90459501  0.86523878  0.04667742    -0.20700
C2180       C  0.92262045  0.85212011  0.05402785     0.25100
C2181       C  0.95445796  0.86420961  0.04756191    -0.18200
C2182       C  0.96772391  0.88884659  0.03413511    -0.08200
C2183       C  0.90655110  0.82550901  0.06794337    -0.18500
C2184       C  0.92031632  0.81031196  0.07637804    -0.23300
C2185       C  0.90224733  0.78265848  0.08933443     0.27100
C2186       C  0.91921615  0.77564017  0.10288743    -0.20000
C2187       C  0.90289942  0.74945622  0.11503870    -0.09700
C2188       C  0.86937463  0.72975250  0.11371111    -0.10200
C2189       C  0.85242485  0.73643776  0.10011364    -0.03200
C2190       C  0.86862531  0.76249035  0.08796291    -0.18300
H2191       H  0.90309716  0.89925837  0.02805816     0.10800
H2192       H  0.88002630  0.85644946  0.05129517     0.10900
H2193       H  0.96935613  0.85491868  0.05265820     0.10500
H2194       H  0.99232445  0.89779714  0.02955490     0.11700
H2195       H  0.88177430  0.81818089  0.07143896     0.11700
H2196       H  0.94558858  0.81837131  0.07417740     0.13700
H2197       H  0.94512832  0.79048447  0.10408913     0.10200
H2198       H  0.91641702  0.74431689  0.12532042     0.12300
H2199       H  0.82657928  0.72165857  0.09898747     0.08900
H2200       H  0.85470884  0.76624478  0.07730796     0.11600
C2201       C  0.94995147  0.55203914  0.02443546    -0.03000
C2202       C  0.97040038  0.58364458  0.03054175    -0.05600
C2203       C  0.95925464  0.59849596  0.04284286    -0.20700
C2204       C  0.92749135  0.58217144  0.04950869     0.25100
C2205       C  0.90667726  0.55066878  0.04322525    -0.18200
C2206       C  0.91787647  0.53571779  0.03082388    -0.08200
C2207       C  0.91720247  0.59940461  0.06258393    -0.18500
C2208       C  0.89222830  0.58481683  0.07463482    -0.23300
C2209       C  0.88318918  0.60269055  0.08807317     0.27100
C2210       C  0.86495194  0.58685657  0.10416121    -0.20000
C2211       C  0.85534526  0.60264573  0.11689448    -0.09700
C2212       C  0.86391004  0.63460086  0.11374786    -0.10200
C2213       C  0.88208995  0.65049453  0.09771458    -0.03200
C2214       C  0.89151198  0.63471858  0.08493065    -0.18300
H2215       H  0.99524688  0.59700386  0.02591658     0.10800
H2216       H  0.97570413  0.62282145  0.04733601     0.10900
H2217       H  0.88173015  0.53763417  0.04761709     0.10500
H2218       H  0.90148451  0.51142642  0.02628415     0.11700
H2219       H  0.93231307  0.62523011  0.06304173     0.11700
H2220       H  0.87890132  0.55890281  0.07546195     0.13700
H2221       H  0.85793737  0.56212800  0.10681242     0.10200
H2222       H  0.84065632  0.58973119  0.12896607     0.12300
H2223       H  0.88865935  0.67508293  0.09494679     0.08900
H2224       H  0.90453102  0.64754974  0.07241942     0.11600
C2225       C  0.96977848  0.93859214  0.21078223    -0.03000
C2226       C  0.94844691  0.93352718  0.19592960    -0.05600
C2227       C  0.93456545  0.90493724  0.18563251    -0.20700
C2228       C  0.94152515  0.88071767  0.19009266     0.25100
C2229       C  0.96394932  0.88635195  0.20453464    -0.18200
C2230       C  0.97793295  0.91504054  0.21474338    -0.08200
C2231       C  0.92490685  0.85012735  0.17933166    -0.18500
C2232       C  0.91957077  0.82184543  0.18625174    -0.23300
C2233       C  0.90115390  0.79092052  0.17590723     0.27100
C2234       C  0.90553063  0.76519218  0.18091036    -0.20000
C2235       C  0.88893527  0.73586906  0.17136116    -0.09700
C2236       C  0.86762321  0.73175566  0.15664279    -0.10200
C2237       C  0.86208484  0.75690277  0.15219692    -0.03200
C2238       C  0.87864321  0.78616683  0.16168065    -0.18300
H2239       H  0.94164669  0.95114748  0.19267953     0.10800
H2240       H  0.91762321  0.90136413  0.17446587     0.10900
H2241       H  0.97094935  0.86887003  0.20793027     0.10500
H2242       H  0.49501980  0.91880471  0.22584974     0.11700
H2243       H  0.91569804  0.85102096  0.16547719     0.11700
H2244       H  0.92889357  0.82101589  0.20008938     0.13700
H2245       H  0.92229438  0.76798432  0.19201605     0.10200
H2246       H  0.89344972  0.71672950  0.17508730     0.12300
H2247       H  0.84498744  0.75393436  0.14127022     0.08900
H2248       H  0.87331333  0.80470226  0.15793890     0.11600
C2249       C  0.97527815  0.53868789  0.21058823    -0.03000
C2250       C  0.95744909  0.52512733  0.19401766    -0.05600
C2251       C  0.94504554  0.54117042  0.18362153    -0.20700
C2252       C  0.94986666  0.57086772  0.18976288     0.25100
C2253       C  0.96903061  0.58525987  0.20578616    -0.18200
C2254       C  0.98211798  0.56957745  0.21588252    -0.08200
C2255       C  0.93506774  0.58666307  0.17915793    -0.18500
C2256       C  0.91889777  0.59911334  0.18794051    -0.23300
C2257       C  0.90258099  0.61354064  0.17739219     0.27100
C2258       C  0.87284373  0.60899718  0.18380696    -0.20000
C2259       C  0.85666350  0.62167307  0.17370076    -0.09700
C2260       C  0.87018343  0.63944914  0.15714461    -0.10200
C2261       C  0.90089063  0.64561740  0.15144329    -0.03200
C2262       C  0.91669671  0.63241751  0.16127023    -0.18300
H2263       H  0.95233608  0.50178932  0.18933948     0.10800
H2264       H  0.93076427  0.52990888  0.17110700     0.10900
H2265       H  0.97395326  0.60865703  0.21043429     0.10500
H2266       H  0.99703780  0.58133164  0.22809506     0.11700
H2267       H  0.93524189  0.58573133  0.16379481     0.11700
H2268       H  0.91578346  0.59675811  0.20320528     0.13700
H2269       H  0.86174824  0.59491887  0.19638219     0.10200
H2270       H  0.83328000  0.61693054  0.17856553     0.12300
H2271       H  0.91261907  0.66047894  0.13923650     0.08900
H2272       H  0.94013117  0.63729536  0.15638746     0.11600
C2273       C  0.77108599  0.64024666  0.15672521    -0.03000
C2274       C  0.75064828  0.65245556  0.15274860    -0.05600
C2275       C  0.72043237  0.63939615  0.16133969    -0.20700
C2276       C  0.70981512  0.61359023  0.17390227     0.25100
C2277       C  0.73100505  0.60237713  0.17859648    -0.18200
C2278       C  0.76147712  0.61573734  0.17010005    -0.08200
C2279       C  0.67665001  0.59931375  0.18179114    -0.18500
C2280       C  0.65937718  0.56876079  0.18771087    -0.23300
C2281       C  0.62636429  0.55463714  0.19575143     0.27100
C2282       C  0.61630390  0.52971607  0.20890982    -0.20000
C2283       C  0.58613908  0.51672281  0.21754374    -0.09700
C2284       C  0.56528065  0.52823839  0.21308600    -0.10200
C2285       C  0.57437797  0.55184426  0.19914981    -0.03200
C2286       C  0.60477329  0.56509713  0.19057957    -0.18300
H2287       H  0.75778867  0.67157247  0.14255309     0.10800
H2288       H  0.70487375  0.64883004  0.15769203     0.10900
H2289       H  0.72418204  0.58330728  0.18874414     0.10500
H2290       H  0.77696049  0.60608053  0.17337268     0.11700
H2291       H  0.66588945  0.61442238  0.18222099     0.11700
H2292       H  0.67006005  0.55359413  0.18731341     0.13700
H2293       H  0.63221331  0.52087307  0.21291917     0.10200
H2294       H  0.57932764  0.99815048  0.22807663     0.12300
H2295       H  0.55842469  0.56075535  0.19538879     0.08900
H2296       H  0.61123894  0.58344374  0.17996796     0.11600
C2297       C  0.60452930  0.55581148  0.44017585    -0.03000
C2298       C  0.63362483  0.58150101  0.44690678    -0.05600
C2299       C  0.66032206  0.59712792  0.43488668    -0.20700
C2300       C  0.65861374  0.58684804  0.41612160     0.25100
C2301       C  0.62958592  0.56114801  0.40941644    -0.18200
C2302       C  0.60282919  0.54589891  0.42128772    -0.08200
C2303       C  0.68684526  0.60387368  0.40347886    -0.18500
C2304       C  0.69403979  0.58842128  0.39023614    -0.23300
C2305       C  0.72166903  0.60518499  0.37721560     0.27100
C2306       C  0.73964184  0.59062690  0.37230150    -0.20000
C2307       C  0.76583111  0.60593204  0.36000681    -0.09700
C2308       C  0.77353363  0.63535337  0.35189808    -0.10200
C2309       C  0.75530957  0.64974441  0.35642564    -0.03200
C2310       C  0.72958420  0.63483439  0.36912718    -0.18300
H2311       H  0.63556902  0.58987692  0.46133438     0.10800
H2312       H  0.68240864  0.61711038  0.44027040     0.10900
H2313       H  0.62730709  0.55325057  0.39486159     0.10500
H2314       H  0.58072251  0.52633831  0.41562334     0.11700
H2315       H  0.70271386  0.62940345  0.40557804     0.11700
H2316       H  0.68021266  0.56246625  0.38951073     0.13700
H2317       H  0.73376620  0.56769391  0.37827785     0.10200
H2318       H  0.78001210  0.59478975  0.35669633     0.12300
H2319       H  0.76128407  0.67262352  0.35032661     0.08900
H2320       H  0.71563394  0.64620684  0.37241766     0.11600
C2321       C  0.86852116  0.73138584  0.35219471    -0.03000
C2322       C  0.90126269  0.75370442  0.34955408    -0.05600
C2323       C  0.91721328  0.77943184  0.36202502    -0.20700
C2324       C  0.90080763  0.78307690  0.37743928     0.25100
C2325       C  0.86786251  0.76071734  0.37991235    -0.18200
C2326       C  0.85201278  0.73494810  0.36748750    -0.08200
C2327       C  0.91839165  0.81129607  0.39000037    -0.18500
C2328       C  0.90851182  0.81311002  0.40759379    -0.23300
C2329       C  0.92462401  0.84242607  0.41944958     0.27100
C2330       C  0.91908510  0.83990281  0.43906751    -0.20000
C2331       C  0.93278555  0.86721581  0.45054663    -0.09700
C2332       C  0.95213642  0.89762899  0.44255689    -0.10200
C2333       C  0.95747656  0.90010825  0.42290960    -0.03200
C2334       C  0.94379822  0.87292800  0.41148391    -0.18300
H2335       H  0.91457075  0.75094052  0.33802545     0.10800
H2336       H  0.94250317  0.79640791  0.35971322     0.10900
H2337       H  0.85400092  0.76320509  0.39116927     0.10500
H2338       H  0.82671367  0.71787981  0.36969731     0.11700
H2339       H  0.94064750  0.83100367  0.38453639     0.11700
H2340       H  0.88808655  0.79227930  0.41379129     0.13700
H2341       H  0.90402726  0.81672614  0.44552246     0.10200
H2342       H  0.92801130  0.86453476  0.46561271     0.12300
H2343       H  0.97196184  0.92319202  0.41623608     0.08900
H2344       H  0.94769960  0.87620309  0.39638780     0.11600
C2345       C  0.94973749  0.54259470  0.43219913    -0.03000
C2346       C  0.94907414  0.53398700  0.41310631    -0.05600
C2347       C  0.93626510  0.54500264  0.39927209    -0.20700
C2348       C  0.92421047  0.56512698  0.40416858     0.25100
C2349       C  0.92417837  0.57317542  0.42333520    -0.18200
C2350       C  0.93687885  0.56205715  0.43719343    -0.08200
C2351       C  0.91105544  0.57657695  0.38905953    -0.18500
C2352       C  0.91069397  0.60413957  0.39054053    -0.23300
C2353       C  0.89688606  0.61614928  0.37613870     0.27100
C2354       C  0.90411139  0.64802394  0.37762394    -0.20000
C2355       C  0.89037366  0.66020154  0.36524392    -0.09700
C2356       C  0.86921065  0.64079131  0.35106000    -0.10200
C2357       C  0.86185542  0.60892232  0.34937893    -0.03200
C2358       C  0.87557044  0.59660913  0.36183197    -0.18300
H2359       H  0.95852085  0.51875378  0.40881399     0.10800
H2360       H  0.93616028  0.53812258  0.38465868     0.10900
H2361       H  0.91396395  0.58765085  0.42776047     0.10500
H2362       H  0.93678197  0.56885809  0.45179503     0.11700
H2363       H  0.90285175  0.56253208  0.37617211     0.11700
H2364       H  0.92178646  0.61930037  0.40280281     0.13700
H2365       H  0.92020264  0.66351790  0.38856365     0.10200
H2366       H  0.89613658  0.68482945  0.36679852     0.12300
H2367       H  0.84494569  0.59343142  0.33874872     0.08900
H2368       H  0.86857739  0.57167511  0.36049597     0.11600
C2369       C  0.86594209  0.73373945  0.30927161    -0.03000
C2370       C  0.89008411  0.74027033  0.29592544    -0.05600
C2371       C  0.90649628  0.77027936  0.28719107    -0.20700
C2372       C  0.89855497  0.79395010  0.29136061     0.25100
C2373       C  0.87360228  0.78689197  0.30434622    -0.18200
C2374       C  0.85745369  0.75704022  0.31317929    -0.08200
C2375       C  0.91790320  0.82621312  0.28278961    -0.18500
C2376       C  0.90649780  0.84631669  0.28007575    -0.23300
C2377       C  0.92603453  0.87822131  0.27121807     0.27100
C2378       C  0.91079213  0.88997012  0.25945405    -0.20000
C2379       C  0.92875203  0.91932785  0.25025833    -0.09700
C2380       C  0.96214095  0.93774607  0.25303378    -0.10200
C2381       C  0.97726379  0.92681616  0.26544714    -0.03200
C2382       C  0.95939555  0.89715761  0.27441107    -0.18300
H2383       H  0.89711944  0.72264358  0.29286778     0.10800
H2384       H  0.92572722  0.77517982  0.27732365     0.10900
H2385       H  0.86728312  0.80469630  0.30827900     0.10500
H2386       H  0.83887302  0.75238245  0.32348601     0.11700
H2387       H  0.94196660  0.83310368  0.27783026     0.11700
H2388       H  0.88143500  0.83841093  0.28315660     0.13700
H2389       H  0.88508675  0.87596929  0.25695408     0.10200
H2390       H  0.91671077  0.92752967  0.24074972     0.12300
H2391       H  0.50299734  0.94064127  0.26766631     0.08900
H2392       H  0.97165707  0.88907427  0.28380806     0.11600
C2393       C  0.96832486  0.53299504  0.25372264    -0.03000
C2394       C  0.98457243  0.55269449  0.26920243    -0.05600
C2395       C  0.97093053  0.56795465  0.27924933    -0.20700
C2396       C  0.94089864  0.56392665  0.27395032     0.25100
C2397       C  0.92389156  0.54277418  0.25903866    -0.18200
C2398       C  0.93745492  0.52737012  0.24909911    -0.08200
C2399       C  0.92815768  0.58200843  0.28438398    -0.18500
C2400       C  0.90669562  0.58926259  0.27698873    -0.23300
C2401       C  0.89445780  0.60778483  0.28738629     0.27100
C2402       C  0.86390683  0.60310144  0.28279910    -0.20000
C2403       C  0.85095769  0.61901120  0.29285066    -0.09700
C2404       C  0.86845980  0.64004694  0.30758048    -0.10200
C2405       C  0.89984127  0.64636260  0.31137245    -0.03200
C2406       C  0.91268762  0.63027487  0.30146335    -0.18300
H2407       H  0.00826949  0.55708965  0.27313081     0.10800
H2408       H  0.98429018  0.58367112  0.29087642     0.10900
H2409       H  0.90009664  0.53786115  0.25503393     0.10500
H2410       H  0.92407346  0.51144311  0.23755776     0.11700
H2411       H  0.93760196  0.59032662  0.29849223     0.11700
H2412       H  0.89707970  0.58092367  0.26292340     0.13700
H2413       H  0.84963147  0.58636350  0.27177678     0.10200
H2414       H  0.82681746  0.61401494  0.28957775     0.12300
H2415       H  0.91425026  0.66340374  0.32222779     0.08900
H2416       H  0.93690220  0.63568702  0.30480283     0.11600
C2417       C  0.56260152  0.53224715  0.25558526    -0.03000
C2418       C  0.56682203  0.51542224  0.27037922    -0.05600
C2419       C  0.59597289  0.52905206  0.28034689    -0.20700
C2420       C  0.62134040  0.55975897  0.27573110     0.25100
C2421       C  0.61613491  0.57731353  0.26168732    -0.18200
C2422       C  0.58708160  0.56366979  0.25176579    -0.08200
C2423       C  0.65258602  0.57269993  0.28595583    -0.18500
C2424       C  0.68076579  0.59666998  0.27924223    -0.23300
C2425       C  0.71191839  0.60981694  0.28949453     0.27100
C2426       C  0.73617768  0.64149734  0.28590311    -0.20000
C2427       C  0.76558018  0.65502115  0.29555815    -0.09700
C2428       C  0.77126309  0.63703164  0.30892371    -0.10200
C2429       C  0.74770467  0.60491555  0.31188060    -0.03200
C2430       C  0.71826382  0.59141453  0.30232124    -0.18300
H2431       H  0.54809921  0.99135369  0.27375426     0.10800
H2432       H  0.59903479  0.51522263  0.29135386     0.10900
H2433       H  0.63424315  0.60158707  0.25826698     0.10500
H2434       H  0.58390673  0.57748360  0.24079830     0.11700
H2435       H  0.65224056  0.56162537  0.29936826     0.11700
H2436       H  0.68131555  0.60786716  0.26586120     0.13700
H2437       H  0.73209315  0.65603921  0.27588183     0.10200
H2438       H  0.78355141  0.67977862  0.29297327     0.12300
H2439       H  0.75209270  0.59022441  0.32158895     0.08900
H2440       H  0.70080487  0.56653022  0.30485293     0.11600
C2441       C  0.63236087  0.76982649  0.85021768    -0.03000
C2442       C  0.64084765  0.74629918  0.84706902    -0.05600
C2443       C  0.62818146  0.71907005  0.85853319    -0.20700
C2444       C  0.60734855  0.71519497  0.87355814     0.25100
C2445       C  0.59868655  0.73867557  0.87657645    -0.18200
C2446       C  0.61128041  0.76578899  0.86509678    -0.08200
C2447       C  0.59447299  0.68613687  0.88553879    -0.18500
C2448       C  0.58591707  0.68560337  0.90376310    -0.23300
C2449       C  0.57299488  0.65664261  0.91582756     0.27100
C2450       C  0.57720888  0.66028645  0.93550956    -0.20000
C2451       C  0.56484164  0.63351670  0.94734297    -0.09700
C2452       C  0.54763158  0.60250740  0.93971495    -0.10200
C2453       C  0.54311332  0.59890956  0.92000191    -0.03200
C2454       C  0.55557890  0.62564735  0.90818883    -0.18300
H2455       H  0.65758650  0.74918980  0.83591062     0.10800
H2456       H  0.63509853  0.70124575  0.85587230     0.10900
H2457       H  0.58190300  0.73603978  0.88762889     0.10500
H2458       H  0.60438922  0.78356226  0.86781572     0.11700
H2459       H  0.59362374  0.66511132  0.87940466     0.11700
H2460       H  0.58992312  0.70755314  0.91044550     0.13700
H2461       H  0.59031074  0.68394023  0.94173795     0.10200
H2462       H  0.56872959  0.63712623  0.96245482     0.12300
H2463       H  0.52976212  0.57537615  0.91365780     0.08900
H2464       H  0.55096312  0.62192477  0.89314960     0.11600
C2465       C  0.90208566  0.94457596  0.93723473    -0.03000
C2466       C  0.90863325  0.94311832  0.91796571    -0.05600
C2467       C  0.88371820  0.92909948  0.90481189    -0.20700
C2468       C  0.85161178  0.91638628  0.91048094     0.25100
C2469       C  0.84481364  0.91702663  0.92984706    -0.18200
C2470       C  0.86987152  0.93106257  0.94308953    -0.08200
C2471       C  0.82626024  0.90255793  0.89567569    -0.18500
C2472       C  0.79679006  0.89908559  0.89771106    -0.23300
C2473       C  0.77210637  0.88708179  0.88246731     0.27100
C2474       C  0.74629686  0.89282955  0.88411803    -0.20000
C2475       C  0.72217696  0.88164760  0.87039330    -0.09700
C2476       C  0.72337321  0.86449942  0.85469647    -0.10200
C2477       C  0.74900741  0.85855497  0.85294301    -0.03200
C2478       C  0.77313878  0.86962350  0.86672212    -0.18300
H2479       H  0.93314144  0.95302077  0.91294816     0.10800
H2480       H  0.88964185  0.92864173  0.89005327     0.10900
H2481       H  0.82030994  0.90653499  0.93490068     0.10500
H2482       H  0.86404449  0.93156067  0.95785190     0.11700
H2483       H  0.83319109  0.89719118  0.88215664     0.11700
H2484       H  0.79089658  0.90701772  0.91070514     0.13700
H2485       H  0.74473638  0.90598665  0.89611115     0.10200
H2486       H  0.70246289  0.88631000  0.87207654     0.12300
H2487       H  0.74983366  0.84451475  0.84122010     0.08900
H2488       H  0.79188557  0.86361992  0.86514735     0.11600
C2489       C  0.56116398  0.96273990  0.93886283    -0.03000
C2490       C  0.57258705  0.97922215  0.92164741    -0.05600
C2491       C  0.58746663  0.96947989  0.90837990    -0.20700
C2492       C  0.59070545  0.94270716  0.91185207     0.25100
C2493       C  0.58050818  0.92694279  0.92940647    -0.18200
C2494       C  0.56597045  0.93700032  0.94284246    -0.08200
C2495       C  0.60457399  0.93184434  0.89678789    -0.18500
C2496       C  0.59589338  0.90092338  0.89443360    -0.23300
C2497       C  0.60793813  0.88910912  0.87882329     0.27100
C2498       C  0.59005575  0.85659604  0.87393474    -0.20000
C2499       C  0.60132571  0.84390425  0.86015021    -0.09700
C2500       C  0.63067138  0.86349857  0.85104095    -0.10200
C2501       C  0.64842399  0.89608671  0.85552328    -0.03200
C2502       C  0.63722066  0.90887637  0.86935447    -0.18300
H2503       H  0.56968515  0.99951485  0.91832641     0.10800
H2504       H  0.59556974  0.98230445  0.89510672     0.10900
H2505       H  0.58367241  0.90685360  0.93278137     0.10500
H2506       H  0.55764873  0.92409448  0.95606742     0.11700
H2507       H  0.62019188  0.94946566  0.88648574     0.11700
H2508       H  0.57780345  0.88309595  0.90375178     0.13700
H2509       H  0.56750630  0.84085566  0.88100975     0.10200
H2510       H  0.58743315  0.81866724  0.85681510     0.12300
H2511       H  0.67156685  0.91126904  0.84888919     0.08900
H2512       H  0.65218563  0.93382769  0.87305651     0.11600
C2513       C  0.93529647  0.96919953  0.75264718    -0.03000
C2514       C  0.92744450  0.94259842  0.76407217    -0.05600
C2515       C  0.89769742  0.92662416  0.77336995    -0.20700
C2516       C  0.87529628  0.93711152  0.77167379     0.25100
C2517       C  0.88353335  0.96433640  0.76053516    -0.18200
C2518       C  0.91325363  0.98014863  0.75107825    -0.08200
C2519       C  0.84292668  0.91764637  0.78059443    -0.18500
C2520       C  0.82340949  0.92914776  0.78535879    -0.23300
C2521       C  0.79118417  0.90898232  0.79427838     0.27100
C2522       C  0.77939894  0.92316737  0.80691350    -0.20000
C2523       C  0.74940603  0.90484146  0.81568715    -0.09700
C2524       C  0.73028770  0.87204512  0.81173412    -0.10200
C2525       C  0.74142183  0.85797966  0.79863395    -0.03200
C2526       C  0.77168251  0.87619432  0.79005805    -0.18300
H2527       H  0.94348914  0.93309697  0.76498819     0.10800
H2528       H  0.89190691  0.90554834  0.78164468     0.10900
H2529       H  0.86668171  0.97273764  0.75847838     0.10500
H2530       H  0.91873342  0.00042813  0.74211955     0.11700
H2531       H  0.83541866  0.89297297  0.78402121     0.11700
H2532       H  0.83190836  0.95448126  0.78370594     0.13700
H2533       H  0.79369602  0.94839896  0.81025172     0.10200
H2534       H  0.74109246  0.91623278  0.82562664     0.12300
H2535       H  0.72705150  0.83277281  0.79536379     0.08900
H2536       H  0.77958706  0.86465847  0.77998592     0.11600
C2537       C  0.63459657  0.86751943  0.80803275    -0.03000
C2538       C  0.65453599  0.89136392  0.79515540    -0.05600
C2539       C  0.64308896  0.90887597  0.78535982    -0.20700
C2540       C  0.61157401  0.90293482  0.78831727     0.25100
C2541       C  0.59120166  0.87796152  0.80059426    -0.18200
C2542       C  0.60264474  0.86050461  0.81034137    -0.08200
C2543       C  0.60038577  0.92247068  0.77800086    -0.18500
C2544       C  0.57703934  0.92772462  0.78465645    -0.23300
C2545       C  0.56391782  0.94546099  0.77417431     0.27100
C2546       C  0.53332687  0.94024852  0.77920052    -0.20000
C2547       C  0.51894333  0.95461942  0.76904591    -0.09700
C2548       C  0.53476585  0.97444236  0.75354640    -0.10200
C2549       C  0.56634749  0.98159180  0.74934305    -0.03200
C2550       C  0.58074564  0.96712512  0.75944935    -0.18300
H2551       H  0.67923604  0.89707432  0.79310937     0.10800
H2552       H  0.65911513  0.92760022  0.77575564     0.10900
H2553       H  0.56633299  0.87157943  0.80259288     0.10500
H2554       H  0.58652281  0.84152009  0.81976209     0.11700
H2555       H  0.61202740  0.93284138  0.76462544     0.11700
H2556       H  0.56596324  0.91754705  0.79820005     0.13700
H2557       H  0.52003769  0.92422988  0.79072570     0.10200
H2558       H  0.99508923  0.94939380  0.77297438     0.12300
H2559       H  0.57963993  0.49784692  0.73794899     0.08900
H2560       H  0.60492941  0.97301699  0.75563831     0.11600
C2561       C  0.63355499  0.77200049  0.80695847    -0.03000
C2562       C  0.65143129  0.76761037  0.79279275    -0.05600
C2563       C  0.63814690  0.73874522  0.78273381    -0.20700
C2564       C  0.60678082  0.71375542  0.78666833     0.25100
C2565       C  0.58829289  0.71896907  0.80016138    -0.18200
C2566       C  0.60154506  0.74782151  0.81012886    -0.08200
C2567       C  0.59405237  0.68297628  0.77618598    -0.18500
C2568       C  0.57016497  0.65470865  0.78276192    -0.23300
C2569       C  0.55717839  0.62386619  0.77230035     0.27100
C2570       C  0.52620269  0.59866606  0.77683538    -0.20000
C2571       C  0.51267741  0.56959997  0.76698069    -0.09700
C2572       C  0.52992659  0.56521827  0.75241604    -0.10200
C2573       C  0.56142806  0.58976105  0.74843352    -0.03200
C2574       C  0.57494977  0.61878772  0.75823436    -0.18300
H2575       H  0.67600545  0.78600253  0.78997093     0.10800
H2576       H  0.65272684  0.73560968  0.77217598     0.10900
H2577       H  0.56356900  0.70101519  0.80302997     0.10500
H2578       H  0.58694061  0.75107368  0.82061284     0.11700
H2579       H  0.60533561  0.68386388  0.76272270     0.11700
H2580       H  0.55903312  0.65391962  0.79627181     0.13700
H2581       H  0.51214875  0.60172106  0.78778490     0.10200
H2582       H  0.98842025  0.55088137  0.77035667     0.12300
H2583       H  0.57553534  0.58650129  0.73761179     0.08900
H2584       H  0.59936024  0.63690590  0.75482054     0.11600
C2585       C  0.54691778  0.60620174  0.52127625    -0.03000
C2586       C  0.53484113  0.62726432  0.51967107    -0.05600
C2587       C  0.54723509  0.65469084  0.53098116    -0.20700
C2588       C  0.57108047  0.66087074  0.54444886     0.25100
C2589       C  0.58316780  0.63988223  0.54608828    -0.18200
C2590       C  0.57140863  0.61294533  0.53447474    -0.08200
C2591       C  0.58390522  0.68974121  0.55639645    -0.18500
C2592       C  0.58774716  0.68841886  0.57512513    -0.23300
C2593       C  0.60206916  0.71732821  0.58710711     0.27100
C2594       C  0.58872605  0.71648027  0.60487356    -0.20000
C2595       C  0.60267666  0.74343045  0.61659567    -0.09700
C2596       C  0.63131800  0.77116853  0.61121396    -0.10200
C2597       C  0.64434518  0.77184011  0.59325369    -0.03200
C2598       C  0.62978951  0.74531610  0.58128505    -0.18300
H2599       H  0.51608461  0.62271116  0.50954387     0.10800
H2600       H  0.53784054  0.67080628  0.52945948     0.10900
H2601       H  0.60201579  0.64458317  0.55618368     0.10500
H2602       H  0.58117073  0.59714500  0.53601484     0.11700
H2603       H  0.58917873  0.71218553  0.54983487     0.11700
H2604       H  0.57931312  0.66539991  0.58192705     0.13700
H2605       H  0.56713981  0.69513011  0.60952092     0.10200
H2606       H  0.59076138  0.74248937  0.62975718     0.12300
H2607       H  0.66601615  0.79267404  0.58837460     0.08900
H2608       H  0.64072023  0.74637271  0.56768487     0.11600
C2609       C  0.90127286  0.95905672  0.52542106    -0.03000
C2610       C  0.88475294  0.97600119  0.52780502    -0.05600
C2611       C  0.85995409  0.96598260  0.54109960    -0.20700
C2612       C  0.85099651  0.93876671  0.55222234     0.25100
C2613       C  0.86767693  0.92190851  0.54992438    -0.18200
C2614       C  0.89234207  0.93181745  0.53656875    -0.08200
C2615       C  0.82465038  0.92906591  0.56628025    -0.18500
C2616       C  0.80670749  0.89876551  0.57245072    -0.23300
C2617       C  0.77932468  0.88766925  0.58589218     0.27100
C2618       C  0.75830832  0.85458725  0.58754641    -0.20000
C2619       C  0.73214465  0.84257074  0.59987255    -0.09700
C2620       C  0.72655588  0.86335642  0.61090590    -0.10200
C2621       C  0.74760239  0.89641355  0.60965125    -0.03200
C2622       C  0.77391017  0.90858137  0.59724610    -0.18300
H2623       H  0.89111047  0.99715376  0.51947826     0.10800
H2624       H  0.84764745  0.97949850  0.54266195     0.10900
H2625       H  0.86236870  0.90149595  0.55866901     0.10500
H2626       H  0.90490864  0.91851942  0.53528802     0.11700
H2627       H  0.81889070  0.94711403  0.57070431     0.11700
H2628       H  0.81106284  0.88048446  0.56662486     0.13700
H2629       H  0.76211701  0.83790122  0.57924048     0.10200
H2630       H  0.71672074  0.81695602  0.60117866     0.12300
H2631       H  0.74361504  0.91269516  0.61824523     0.08900
H2632       H  0.78994126  0.93416668  0.59684759     0.11600
C2633       C  0.63249068  0.86470732  0.61372141    -0.03000
C2634       C  0.60050128  0.85669799  0.61716877    -0.05600
C2635       C  0.58555826  0.86889731  0.60561421    -0.20700
C2636       C  0.60225345  0.88918400  0.59038642     0.25100
C2637       C  0.63430877  0.89695345  0.58694713    -0.18200
C2638       C  0.64921603  0.88486542  0.59854331    -0.08200
C2639       C  0.58492561  0.90020713  0.57781171    -0.18500
C2640       C  0.60004564  0.92536883  0.56603258    -0.23300
C2641       C  0.58310364  0.93586720  0.55283585     0.27100
C2642       C  0.60002901  0.96715251  0.54575060    -0.20000
C2643       C  0.58544834  0.97814572  0.53310863    -0.09700
C2644       C  0.55354654  0.95800077  0.52713021    -0.10200
C2645       C  0.53669127  0.92641968  0.53392587    -0.03200
C2646       C  0.55133834  0.91538766  0.54659978    -0.18300
H2647       H  0.58693886  0.84058892  0.62858626     0.10800
H2648       H  0.56076649  0.86219567  0.60845286     0.10900
H2649       H  0.64781649  0.91153817  0.57503909     0.10500
H2650       H  0.67383391  0.89106482  0.59556559     0.11700
H2651       H  0.55883749  0.88747859  0.57869112     0.11700
H2652       H  0.62608920  0.93990861  0.56643464     0.13700
H2653       H  0.62463087  0.98329185  0.55012321     0.10200
H2654       H  0.59915156  0.50256039  0.52814064     0.12300
H2655       H  0.51219663  0.91019119  0.52943238     0.08900
H2656       H  0.53784066  0.89075106  0.55118296     0.11600
C2657       C  0.63760247  0.76975913  0.65446917    -0.03000
C2658       C  0.65103663  0.75026803  0.65107691    -0.05600
C2659       C  0.63796896  0.72022065  0.65962679    -0.20700
C2660       C  0.61094930  0.70887663  0.67150604     0.25100
C2661       C  0.59854196  0.72918611  0.67563889    -0.18200
C2662       C  0.61191816  0.75945824  0.66723847    -0.08200
C2663       C  0.59670428  0.67593569  0.67935364    -0.18500
C2664       C  0.56543413  0.65785055  0.68427369    -0.23300
C2665       C  0.55133687  0.62500428  0.69228141     0.27100
C2666       C  0.52431061  0.61367021  0.70414211    -0.20000
C2667       C  0.51158502  0.58386882  0.71297008    -0.09700
C2668       C  0.52537970  0.56457053  0.70994208    -0.10200
C2669       C  0.55114531  0.57489887  0.69723004    -0.03200
C2670       C  0.56409327  0.60487953  0.68847438    -0.18300
H2671       H  0.67103399  0.75795723  0.64133955     0.10800
H2672       H  0.64833144  0.70532964  0.65644560     0.10900
H2673       H  0.57848521  0.72178750  0.68525422     0.10500
H2674       H  0.60124508  0.77415377  0.67001657     0.11700
H2675       H  0.61257242  0.66609475  0.68061274     0.11700
H2676       H  0.54957447  0.66771036  0.68301614     0.13700
H2677       H  0.51367843  0.62839531  0.70710323     0.10200
H2678       H  0.99150689  0.57621642  0.72264052     0.12300
H2679       H  0.56215675  0.56045084  0.69470480     0.08900
H2680       H  0.58415535  0.61222284  0.67887201     0.11600
C2681       C  0.93584464  0.96593703  0.70964016    -0.03000
C2682       C  0.93204312  0.98067817  0.69351872    -0.05600
C2683       C  0.90371550  0.96515875  0.68278418    -0.20700
C2684       C  0.87850346  0.93496725  0.68821751     0.25100
C2685       C  0.88269880  0.91975484  0.70395790    -0.18200
C2686       C  0.91130762  0.93486654  0.71435154    -0.08200
C2687       C  0.84819664  0.91939687  0.67715331    -0.18500
C2688       C  0.81911355  0.90473994  0.68558698    -0.23300
C2689       C  0.78864265  0.89018059  0.67467501     0.27100
C2690       C  0.76287271  0.89369854  0.68104539    -0.20000
C2691       C  0.73402581  0.88044410  0.67079544    -0.09700
C2692       C  0.73020068  0.86282837  0.65421699    -0.10200
C2693       C  0.75548481  0.85790317  0.64846596    -0.03200
C2694       C  0.78461031  0.87192435  0.65837125    -0.18300
H2695       H  0.95067978  0.00447135  0.68946051     0.10800
H2696       H  0.90108861  0.97710885  0.67053492     0.10900
H2697       H  0.86401032  0.89601282  0.70806220     0.10500
H2698       H  0.91419107  0.92220980  0.72610545     0.11700
H2699       H  0.84977033  0.92197719  0.66185184     0.11700
H2700       H  0.81763619  0.90527346  0.70092235     0.13700
H2701       H  0.76535481  0.90733985  0.69374312     0.10200
H2702       H  0.71489357  0.88440252  0.67566590     0.12300
H2703       H  0.75273298  0.84292416  0.63642730     0.08900
H2704       H  0.80372090  0.86790327  0.65353578     0.11600
C2705       C  0.53189642  0.97033614  0.71032662    -0.03000
C2706       C  0.55243934  0.98658101  0.69512845    -0.05600
C2707       C  0.56817894  0.97308667  0.68537190    -0.20700
C2708       C  0.56374284  0.94308638  0.69061801     0.25100
C2709       C  0.54169176  0.92604226  0.70518513    -0.18200
C2710       C  0.52583381  0.93947680  0.71482637    -0.08200
C2711       C  0.58201755  0.93024706  0.68032694    -0.18500
C2712       C  0.58789710  0.90775082  0.68746249    -0.23300
C2713       C  0.60577006  0.89463243  0.67705017     0.27100
C2714       C  0.60005879  0.86394627  0.68171887    -0.20000
C2715       C  0.61519350  0.85009409  0.67170133    -0.09700
C2716       C  0.63637934  0.86669565  0.65683686    -0.10200
C2717       C  0.64371986  0.89816234  0.65293341    -0.03200
C2718       C  0.62850144  0.91197746  0.66285522    -0.18300
H2719       H  0.55711371  0.01011673  0.69115967     0.10800
H2720       H  0.58449719  0.98649195  0.67396666     0.10900
H2721       H  0.53633283  0.90226738  0.70913326     0.10500
H2722       H  0.50917301  0.92594441  0.72606281     0.11700
H2723       H  0.59129667  0.94020591  0.66644832     0.11700
H2724       H  0.57862933  0.89771562  0.70131935     0.13700
H2725       H  0.58310739  0.85026709  0.69280885     0.09200
H2726       H  0.60942302  0.82599382  0.67511594     0.12300
H2727       H  0.66079746  0.91184362  0.64189992     0.08900
H2728       H  0.63472120  0.93619623  0.65938157     0.11600
loop_ 
_geom_bond_atom_site_label_1 
_geom_bond_atom_site_label_2 
_geom_bond_distance 
_geom_bond_site_symmetry_2 
_ccdc_geom_bond_type 
C1            H2   1.111       .  S
C1            C7   1.543       .  S
C1            C6   1.546       .  S
C1            C5   1.544       .  S
C3            H4   1.110       .  S
C3            C9   1.529       .  S
C3            C8   1.529       .  S
C3           C10   1.534       .  S
C5            C8   1.374       .  D
C5          C670   1.488       .  S
C6            C9   1.375       .  D
C6          C646   1.491       .  S
C7           C10   1.379       .  D
C7          C611   1.482       .  S
C8          C587   1.481       .  S
C9          C574   1.474       .  S
C10         C550   1.495       .  S
C11          H12   1.111       .  S
C11          C17   1.549       .  S
C11          C16   1.547       .  S
C11          C15   1.544       .  S
C13          H14   1.112       .  S
C13          C19   1.524       .  S
C13          C18   1.530       .  S
C13          C20   1.526       .  S
C15          C18   1.374       .  D
C15         C478   1.487       .  S
C16          C19   1.372       .  D
C16         C491   1.485       .  S
C17          C20   1.376       .  D
C17         C515   1.486       .  S
C18         C430   1.479       .  S
C19         C454   1.472       .  S
C20         C395   1.485       .  S
C21          H22   1.111       .  S
C21          C26   1.538   1_655  S
C21        C2073   1.542   1_545  S
C21         C707   1.543   1_645  S
C23        H1388   1.111       .  S
C23          C29   1.538   1_655  S
C23         C710   1.540   1_645  S
C23        C2076   1.540   1_545  S
H24        C1387   1.111       .  S
C25         C703   1.543   1_455  S
C25          C28   1.380       .  D
C25         C659   1.491       .  S
C26          C29   1.374       .  D
C26         C622   1.487       .  S
C27        C2067   1.542       .  S
C27          C30   1.377       .  D
C27         C635   1.490       .  S
C28         C705   1.540   1_455  S
C28         C502   1.493       .  S
C29         C526   1.486       .  S
C30        C2069   1.540       .  S
C30         C467   1.488       .  S
C31          H32   1.111       .  S
C31          C37   1.542       .  S
C31          C36   1.545       .  S
C31          C35   1.542       .  S
C33          H34   1.112       .  S
C33          C39   1.526       .  S
C33          C38   1.524       .  S
C33          C40   1.526       .  S
C35          C38   1.372       .  D
C35         C382   1.483       .  S
C36          C39   1.376       .  D
C36         C358   1.483       .  S
C37          C40   1.373       .  D
C37         C323   1.480       .  S
C38         C262   1.471       .  S
C39         C310   1.476       .  S
C40         C275   1.477       .  S
C41          H42   1.110       .  S
C41          C47   1.529       .  S
C41          C46   1.528       .  S
C41          C45   1.529       .  S
C43          H44   1.111       .  S
C43          C49   1.547       .  S
C43          C48   1.546       .  S
C43          C50   1.543       .  S
C45          C48   1.375       .  D
C45         C118   1.490       .  S
C46          C49   1.377       .  D
C46         C166   1.479       .  S
C47          C50   1.373       .  D
C47         C142   1.479       .  S
C48         C227   1.483       .  S
C49         C214   1.491       .  S
C50         C190   1.486       .  S
C51          H52   1.111       .  S
C51          C57   1.537       .  S
C51        C2102   1.539   1_445  S
C51        C1419   1.544   1_455  S
C53          H54   1.111   1_545  S
C53          C60   1.536   1_655  S
C53        C2105   1.534   1_545  S
C53        C1422   1.537       .  S
C55        C1415   1.544       .  S
C55          C58   1.380       .  D
C55         C203   1.494       .  S
C56        C2097   1.539       .  S
C56          C59   1.373       .  D
C56         C179   1.486       .  S
C57          C60   1.376       .  D
C57         C238   1.484       .  S
C58        C1417   1.537       .  S
C58         C347   1.485       .  S
C59        C2099   1.534       .  S
C59         C334   1.480       .  S
C60         C371   1.486       .  S
Zn61         O65   1.935       .  S
Zn61         O66   1.999       .  S
Zn61       O2116   1.987   1_445  S
Zn61        O759   1.982   1_545  S
Zn62         O65   1.948       .  S
Zn62         O69   2.026       .  S
Zn62         O73   1.998   1_556  S
Zn62       O1431   1.991   1_456  S
Zn63       O2111   1.969       .  S
Zn63         O68   2.043       .  S
Zn63         O74   2.020   1_556  S
Zn63        O753   2.037   1_556  S
Zn64        O747   1.973       .  S
Zn64         O76   2.045       .  S
Zn64       O1436   2.030   1_456  S
Zn64        O757   2.026   1_556  S
O65       Zn2109   1.969   1_445  S
O65        Zn746   1.973   1_545  S
O66          C78   1.270       .  A
O67       Zn1426   1.991   1_554  S
O67          C79   1.272       .  A
O68          C80   1.277       .  A
O69          C78   1.273       .  A
O70       Zn2107   1.986       .  S
O70          C80   1.271       .  A
O71        Zn745   2.037   1_544  S
O71          C79   1.276       .  A
O72       Zn1428   2.030   1_554  S
O72          C81   1.276       .  A
O73          C82   1.272       .  A
O74          C81   1.276       .  A
O75        Zn746   2.026   1_544  S
O75          C82   1.275       .  A
O76          C83   1.277       .  A
O77        Zn743   1.982       .  S
O77          C83   1.270       .  A
C78         C406   1.482       .  S
C79         C155   1.481       .  S
C80         C419   1.481       .  S
C81         C131   1.485       .  S
C82         C107   1.481       .  S
C83         C443   1.477       .  S
Zn84       O1452   1.961       .  S
Zn84         O89   2.021       .  S
Zn84       O1457   2.017       .  S
Zn84        O782   2.014   1_545  S
Zn85         O88   1.938   1_565  S
Zn85         O90   2.000   1_565  S
Zn85       O1456   1.993   1_465  S
Zn85       O2142   1.987   1_455  S
Zn86         O88   1.953       .  S
Zn86         O91   2.006       .  S
Zn86         O94   2.030       .  S
Zn86        O779   2.007   1_545  S
Zn87       O2134   1.965       .  S
Zn87         O98   2.031       .  S
Zn87         O99   2.019       .  S
Zn87       O1459   2.023       .  S
O88       Zn1448   1.961   1_455  S
O88       Zn2133   1.965   1_445  S
O89         C101   1.274       .  A
O90         C102   1.272       .  A
O91         C103   1.273       .  A
O92       Zn1449   1.993   1_545  S
O92         C101   1.271       .  A
O93       Zn1448   2.017   1_455  S
O93         C103   1.274       .  A
O94         C102   1.274       .  A
O95       Zn1451   2.023   1_455  S
O95         C104   1.275       .  A
O96       Zn2131   1.987       .  S
O96         C105   1.271       .  A
O97        Zn768   2.007       .  S
O97         C104   1.274       .  A
O98         C105   1.275       .  A
O99         C106   1.275       .  A
O100       Zn766   2.014       .  S
O100        C106   1.274       .  A
C101        C299   1.478       .  S
C102        C251   1.480       .  S
C103        C539   1.476       .  S
C104        C598   1.481       .  S
C105        C286   1.480       .  S
C106        C563   1.481       .  S
C107        C108   1.405       .  A
C107        C112   1.406       .  A
C108        C109   1.394       .  A
C108        H121   1.083       .  S
C109        C110   1.402       .  A
C109        H122   1.084       .  S
C110        C113   1.485       .  S
C110        C111   1.409       .  A
C111        C112   1.400       .  A
C111        H123   1.081       .  S
C112        H124   1.083       .  S
C113        C114   1.347       .  D
C113        H125   1.085       .  S
C114        C115   1.486       .  S
C114        H126   1.084       .  S
C115        C116   1.404       .  A
C115        C120   1.407       .  A
C116        C117   1.399       .  A
C116        H127   1.083       .  S
C117        C118   1.406       .  A
C117        H128   1.082       .  S
C118        C119   1.402       .  A
C119        C120   1.394       .  A
C119        H129   1.078       .  S
C120        H130   1.081       .  S
C131        C132   1.405       .  A
C131        C136   1.407       .  A
C132        C133   1.396       .  A
C132        H145   1.083       .  S
C133        C134   1.404       .  A
C133        H146   1.083       .  S
C134        C137   1.491       .  S
C134        C135   1.410       .  A
C135        C136   1.402       .  A
C135        H147   1.079       .  S
C136        H148   1.083       .  S
C137        C138   1.349       .  D
C137        H149   1.085       .  S
C138        C139   1.488       .  S
C138        H150   1.083       .  S
C139        C140   1.405       .  A
C139        C144   1.409       .  A
C140        C141   1.400       .  A
C140        H151   1.083       .  S
C141        C142   1.403       .  A
C141        H152   1.083       .  S
C142        C143   1.398       .  A
C143        C144   1.395       .  A
C143        H153   1.080       .  S
C144        H154   1.081       .  S
C155        C156   1.406       .  A
C155        C160   1.406       .  A
C156        C157   1.392       .  A
C156        H169   1.083       .  S
C157        C158   1.400       .  A
C157        H170   1.084       .  S
C158        C161   1.483       .  S
C158        C159   1.409       .  A
C159        C160   1.402       .  A
C159        H171   1.081       .  S
C160        H172   1.083       .  S
C161        C162   1.345       .  D
C161        H173   1.085       .  S
C162        C163   1.486       .  S
C162        H174   1.085       .  S
C163        C164   1.404       .  A
C163        C168   1.409       .  A
C164        C165   1.398       .  A
C164        H175   1.083       .  S
C165        C166   1.402       .  A
C165        H176   1.083       .  S
C166        C167   1.401       .  A
C167        C168   1.394       .  A
C167        H177   1.084       .  S
C168        H178   1.081       .  S
C179        C180   1.400       .  A
C179        C184   1.405       .  A
C180        C181   1.399       .  A
C180        H193   1.079       .  S
C181        C182   1.405       .  A
C181        H194   1.083       .  S
C182        C185   1.488       .  S
C182        C183   1.408       .  A
C183        C184   1.399       .  A
C183        H195   1.081       .  S
C184       H1560   1.083       .  S
C185        C186   1.350       .  D
C185        H197   1.084       .  S
C186        C187   1.491       .  S
C186        H198   1.085       .  S
C187        C188   1.406       .  A
C187        C192   1.408       .  A
C188        C189   1.401       .  A
C188        H199   1.083       .  S
C189        C190   1.402       .  A
C189        H200   1.083       .  S
C190        C191   1.404       .  A
C191        C192   1.397       .  A
C191        H201   1.083       .  S
C192        H202   1.081       .  S
H196       C1548   1.083       .  S
C203        C204   1.403       .  A
C203        C208   1.408       .  A
C204        C205   1.400       .  A
C204        H217   1.078       .  S
C205        C206   1.402       .  A
C205        H218   1.083       .  S
C206        C209   1.482       .  S
C206        C207   1.403       .  A
C207        C208   1.399       .  A
C207        H219   1.083       .  S
C208        H220   1.083       .  S
C209        C210   1.347       .  D
C209        H221   1.087       .  S
C210        C211   1.485       .  S
C210        H222   1.087       .  S
C211        C212   1.405       .  A
C211        C216   1.404       .  A
C212        C213   1.403       .  A
C212        H223   1.083       .  S
C213        C214   1.403       .  A
C213        H224   1.082       .  S
C214        C215   1.407       .  A
C215        C216   1.397       .  A
C215        H225   1.083       .  S
C216        H226   1.083       .  S
C227        C228   1.404       .  A
C227        C232   1.401       .  A
C228        C229   1.397       .  A
C228        H241   1.083       .  S
C229        C230   1.403       .  A
C229        H242   1.083       .  S
C230        C233   1.489       .  S
C230        C231   1.411       .  A
C231        C232   1.403       .  A
C231        H243   1.081       .  S
C232        H244   1.082       .  S
C233        C234   1.347       .  D
C233        H245   1.086       .  S
C234        C235   1.487       .  S
C234        H246   1.085       .  S
C235        C236   1.402       .  A
C235        C240   1.410       .  A
C236        C237   1.396       .  A
C236        H247   1.083       .  S
C237        C238   1.404       .  A
C237        H930   1.083   1_545  S
C238        C239   1.402       .  A
C239        C240   1.402       .  A
C239        H249   1.083       .  S
C240        H250   1.082       .  S
H248        C919   1.083       .  S
C251        C252   1.406       .  A
C251        C256   1.406       .  A
C252        C253   1.401       .  A
C252        H265   1.083       .  S
C253        C254   1.403       .  A
C253        H266   1.083       .  S
C254        C257   1.480       .  S
C254        C255   1.404       .  A
C255        C256   1.395       .  A
C255        H267   1.083       .  S
C256        H268   1.083       .  S
C257        C258   1.344       .  D
C257        H269   1.087       .  S
C258        C259   1.477       .  S
C258        H270   1.087       .  S
C259        C260   1.402       .  A
C259        C264   1.407       .  A
C260        C261   1.396       .  A
C260        H271   1.083       .  S
C261        C262   1.400       .  A
C261        H272   1.084       .  S
C262        C263   1.400       .  A
C263        C264   1.398       .  A
C263        H273   1.083       .  S
C264        H274   1.083       .  S
C275        C276   1.402       .  A
C275        C280   1.400       .  A
C276        C277   1.397       .  A
C276        H289   1.083       .  S
C277        C278   1.405       .  A
C277        H290   1.083       .  S
C278        C281   1.484       .  S
C278        C279   1.408       .  A
C279        C280   1.396       .  A
C279        H291   1.081       .  S
C280        H292   1.084       .  S
C281        C282   1.348       .  D
C281        H293   1.085       .  S
C282        C283   1.485       .  S
C282        H294   1.085       .  S
C283        C284   1.405       .  A
C283        C288   1.406       .  A
C284        C285   1.400       .  A
C284        H295   1.083       .  S
C285        C286   1.405       .  A
C285        H296   1.083       .  S
C286        C287   1.406       .  A
C287        C288   1.393       .  A
C287        H297   1.083       .  S
C288        H298   1.081       .  S
C299        C300   1.407       .  A
C299        C304   1.404       .  A
C300        C301   1.396       .  A
C300        H313   1.083       .  S
C301        C302   1.401       .  A
C301        H314   1.083       .  S
C302        C305   1.483       .  S
C302        C303   1.409       .  A
C303        C304   1.397       .  A
C303        H315   1.082       .  S
C304        H316   1.083       .  S
C305        C306   1.344       .  D
C305        H317   1.084       .  S
C306        C307   1.483       .  S
C306        H318   1.086       .  S
C307        C308   1.403       .  A
C307        C312   1.411       .  A
C308        C309   1.392       .  A
C308        H319   1.083       .  S
C309        C310   1.400       .  A
C309        H320   1.084       .  S
C310        C311   1.402       .  A
C311        C312   1.399       .  A
C311        H321   1.083       .  S
C312        H322   1.080       .  S
C323        C324   1.401       .  A
C323        C328   1.403       .  A
C324        C325   1.400       .  A
C324        H337   1.083       .  S
C325        C326   1.406       .  A
C325        H338   1.083       .  S
C326        C329   1.486       .  S
C326        C327   1.407       .  A
C327        C328   1.397       .  A
C327        H339   1.082       .  S
C328        H340   1.083       .  S
C329        C330   1.347       .  D
C329        H341   1.087       .  S
C330        C331   1.483       .  S
C330        H342   1.086       .  S
C331        C332   1.403       .  A
C331        C336   1.408       .  A
C332        C333   1.397       .  A
C332        H343   1.083       .  S
C333        C334   1.403       .  A
C333        H344   1.083       .  S
C334        C335   1.401       .  A
C335        C336   1.400       .  A
C335       H1709   1.081       .  S
C336        H346   1.083       .  S
H345       C1699   1.081   1_455  S
C347        C348   1.402       .  A
C347        C352   1.404       .  A
C348        C349   1.399       .  A
C348        H361   1.083       .  S
C349        C350   1.405       .  A
C349        H362   1.083       .  S
C350        C353   1.488       .  S
C350        C351   1.408       .  A
C351        C352   1.398       .  A
C351        H363   1.081       .  S
C352        H364   1.083       .  S
C353        C354   1.349       .  D
C353        H365   1.085       .  S
C354        C355   1.486       .  S
C354        H366   1.085       .  S
C355        C356   1.405       .  A
C355        C360   1.407       .  A
C356        C357   1.399       .  A
C356        H367   1.083       .  S
C357        C358   1.401       .  A
C357        H368   1.083       .  S
C358        C359   1.404       .  A
C359        C360   1.397       .  A
C359        H369   1.083       .  S
C360        H370   1.082       .  S
C371        C372   1.401       .  A
C371        C376   1.403       .  A
C372        C373   1.401       .  A
C372       H1067   1.081   1_545  S
C373        C374   1.407       .  A
C373        H386   1.083       .  S
C374        C377   1.491       .  S
C374        C375   1.408       .  A
C375        C376   1.396       .  A
C375        H387   1.080       .  S
C376        H388   1.083       .  S
C377        C378   1.351       .  D
C377        H389   1.085       .  S
C378        C379   1.487       .  S
C378        H390   1.084       .  S
C379        C380   1.406       .  A
C379        C384   1.407       .  A
C380        C381   1.400       .  A
C380        H391   1.083       .  S
C381        C382   1.401       .  A
C381        H392   1.083       .  S
C382        C383   1.404       .  A
C383        C384   1.398       .  A
C383        H393   1.082       .  S
C384        H394   1.081       .  S
H385       C1054   1.081       .  S
C395        C396   1.404       .  A
C395        C400   1.402       .  A
C396        C397   1.399       .  A
C396        H409   1.083       .  S
C397        C398   1.404       .  A
C397        H410   1.083       .  S
C398        C401   1.484       .  S
C398        C399   1.406       .  A
C399        C400   1.396       .  A
C399        H411   1.082       .  S
C400        H412   1.081       .  S
C401        C402   1.347       .  D
C401        H413   1.086       .  S
C402        C403   1.484       .  S
C402        H414   1.086       .  S
C403        C404   1.404       .  A
C403        C408   1.406       .  A
C404        C405   1.399       .  A
C404        H415   1.083       .  S
C405        C406   1.405       .  A
C405        H416   1.083       .  S
C406        C407   1.407       .  A
C407        C408   1.397       .  A
C407        H417   1.083       .  S
C408        H418   1.082       .  S
C419        C420   1.406       .  A
C419        C424   1.405       .  A
C420        C421   1.393       .  A
C420        H433   1.083       .  S
C421        C422   1.400       .  A
C421        H434   1.084       .  S
C422        C425   1.485       .  S
C422        C423   1.410       .  A
C423        C424   1.401       .  A
C423        H435   1.081       .  S
C424        H436   1.083       .  S
C425        C426   1.345       .  D
C425        H437   1.084       .  S
C426        C427   1.487       .  S
C426        H438   1.085       .  S
C427        C428   1.403       .  A
C427        C432   1.411       .  A
C428        C429   1.395       .  A
C428        H439   1.083       .  S
C429        C430   1.402       .  A
C429        H440   1.083       .  S
C430        C431   1.402       .  A
C431        C432   1.398       .  A
C431        H441   1.083       .  S
C432        H442   1.080       .  S
C443        C444   1.406       .  A
C443        C448   1.403       .  A
C444        C445   1.394       .  A
C444        H457   1.083       .  S
C445        C446   1.400       .  A
C445        H458   1.084       .  S
C446        C449   1.483       .  S
C446        C447   1.409       .  A
C447        C448   1.400       .  A
C447        H459   1.082       .  S
C448        H460   1.083       .  S
C449        C450   1.345       .  D
C449        H461   1.085       .  S
C450        C451   1.484       .  S
C450        H462   1.086       .  S
C451        C452   1.404       .  A
C451        C456   1.410       .  A
C452        C453   1.395       .  A
C452        H463   1.083       .  S
C453        C454   1.399       .  A
C453        H464   1.082       .  S
C454        C455   1.400       .  A
C455        C456   1.399       .  A
C455        H465   1.083       .  S
C456        H466   1.081       .  S
C467        C468   1.401       .  A
C467        C472   1.404       .  A
C468        C469   1.400       .  A
C468        H481   1.078       .  S
C469        C470   1.405       .  A
C469        H482   1.083       .  S
C470        C473   1.493       .  S
C470        C471   1.410       .  A
C471        C472   1.404       .  A
C471        H483   1.081       .  S
C472        H484   1.083       .  S
C473        C474   1.349       .  D
C473        H485   1.086       .  S
C474        C475   1.492       .  S
C474        H486   1.085       .  S
C475        C476   1.404       .  A
C475        C480   1.410       .  A
C476        C477   1.400       .  A
C476        H487   1.083       .  S
C477        C478   1.404       .  A
C477        H488   1.083       .  S
C478        C479   1.402       .  A
C479        C480   1.403       .  A
C479        H489   1.081       .  S
C480        H490   1.082       .  S
C491        C492   1.402       .  A
C491        C496   1.404       .  A
C492        C493   1.402       .  A
C492        H505   1.083       .  S
C493        C494   1.406       .  A
C493        H506   1.083       .  S
C494        C497   1.491       .  S
C494        C495   1.408       .  A
C495        C496   1.398       .  A
C495        H507   1.081       .  S
C496        H508   1.083       .  S
C497        C498   1.351       .  D
C497        H509   1.084       .  S
C498        C499   1.491       .  S
C498        H510   1.085       .  S
C499        C500   1.404       .  A
C499        C504   1.409       .  A
C500        C501   1.399       .  A
C500        H511   1.084       .  S
C501        C502   1.402       .  A
C501       H1876   1.077   1_455  S
C502        C503   1.406       .  A
C503        C504   1.401       .  A
C503       H1195   1.083       .  S
C504        H514   1.081       .  S
H512       C1865   1.077       .  S
H513       C1185   1.083       .  S
C515        C516   1.401       .  A
C515        C520   1.405       .  A
C516        C517   1.401       .  A
C516        H529   1.081       .  S
C517        C518   1.406       .  A
C517        H530   1.083       .  S
C518        C521   1.490       .  S
C518        C519   1.407       .  A
C519        C520   1.397       .  A
C519        H531   1.081       .  S
C520        H532   1.083       .  S
C521        C522   1.351       .  D
C521        H533   1.084       .  S
C522        C523   1.491       .  S
C522        H534   1.085       .  S
C523        C524   1.407       .  A
C523        C528   1.408       .  A
C524        C525   1.401       .  A
C524        H535   1.083       .  S
C525        C526   1.401       .  A
C525       H1900   1.083   1_455  S
C526        C527   1.404       .  A
C527        C528   1.397       .  A
C527        H537   1.083       .  S
C528        H538   1.081       .  S
H536       C1889   1.083       .  S
C539        C540   1.406       .  A
C539        C544   1.405       .  A
C540        C541   1.398       .  A
C540        H553   1.083       .  S
C541        C542   1.401       .  A
C541        H554   1.083       .  S
C542        C545   1.474       .  S
C542        C543   1.403       .  A
C543        C544   1.395       .  A
C543        H555   1.083       .  S
C544        H556   1.083       .  S
C545        C546   1.342       .  D
C545        H557   1.087       .  S
C546        C547   1.475       .  S
C546        H558   1.087       .  S
C547        C548   1.400       .  A
C547        C552   1.401       .  A
C548        C549   1.398       .  A
C548        H559   1.083       .  S
C549        C550   1.408       .  A
C549        H560   1.080       .  S
C550        C551   1.407       .  A
C551        C552   1.395       .  A
C551        H561   1.079       .  S
C552        H562   1.083       .  S
C563        C564   1.406       .  A
C563        C568   1.405       .  A
C564        C565   1.398       .  A
C564        H577   1.083       .  S
C565        C566   1.403       .  A
C565        H578   1.083       .  S
C566        C569   1.486       .  S
C566        C567   1.408       .  A
C567        C568   1.397       .  A
C567        H579   1.081       .  S
C568        H580   1.083       .  S
C569        C570   1.346       .  D
C569        H581   1.084       .  S
C570        C571   1.486       .  S
C570        H582   1.085       .  S
C571        C572   1.403       .  A
C571        C576   1.411       .  A
C572        C573   1.393       .  A
C572        H583   1.083       .  S
C573        C574   1.398       .  A
C573        H584   1.081       .  S
C574        C575   1.401       .  A
C575        C576   1.401       .  A
C575        H585   1.083       .  S
C576        H586   1.080       .  S
C587        C588   1.403       .  A
C587        C592   1.400       .  A
C588        C589   1.398       .  A
C588        H601   1.083       .  S
C589        C590   1.405       .  A
C589        H602   1.083       .  S
C590        C593   1.487       .  S
C590        C591   1.409       .  A
C591        C592   1.395       .  A
C591        H603   1.080       .  S
C592        H604   1.084       .  S
C593        C594   1.347       .  D
C593        H605   1.085       .  S
C594        C595   1.485       .  S
C594        H606   1.084       .  S
C595        C596   1.402       .  A
C595        C600   1.409       .  A
C596        C597   1.395       .  A
C596        H607   1.083       .  S
C597        C598   1.405       .  A
C597       H1290   1.083       .  S
C598        C599   1.406       .  A
C599        C600   1.400       .  A
C599        H609   1.083       .  S
C600        H610   1.081       .  S
H608       C1279   1.083   1_545  S
C611        C612   1.403       .  A
C611        C616   1.401       .  A
C612        C613   1.398       .  A
C612        H625   1.083       .  S
C613        C614   1.404       .  A
C613        H626   1.083       .  S
C614        C617   1.490       .  S
C614        C615   1.410       .  A
C615        C616   1.401       .  A
C615        H627   1.082       .  S
C616        H628   1.081       .  S
C617        C618   1.349       .  D
C617        H629   1.085       .  S
C618        C619   1.491       .  S
C618        H630   1.085       .  S
C619        C620   1.404       .  A
C619        C624   1.410       .  A
C620        C621   1.398       .  A
C620        H631   1.083       .  S
C621        C622   1.404       .  A
C621       H1996   1.083   1_455  S
C622        C623   1.402       .  A
C623        C624   1.402       .  A
C623        H633   1.081       .  S
C624        H634   1.081       .  S
H632       C1985   1.083       .  S
C635        C636   1.404       .  A
C635        C640   1.407       .  A
C636        C637   1.401       .  A
C636        H649   1.083       .  S
C637        C638   1.403       .  A
C637        H650   1.083       .  S
C638        C641   1.482       .  S
C638        C639   1.403       .  A
C639        C640   1.397       .  A
C639        H651   1.083       .  S
C640        H652   1.082       .  S
C641        C642   1.346       .  D
C641        H653   1.087       .  S
C642        C643   1.482       .  S
C642        H654   1.087       .  S
C643        C644   1.403       .  A
C643        C648   1.403       .  A
C644        C645   1.401       .  A
C644        H655   1.083       .  S
C645        C646   1.404       .  A
C645        H656   1.083       .  S
C646        C647   1.408       .  A
C647        C648   1.398       .  A
C647        H657   1.080       .  S
C648        H658   1.083       .  S
C659        C660   1.402       .  A
C659        C664   1.405       .  A
C660        C661   1.401       .  A
C660        H673   1.080       .  S
C661        C662   1.406       .  A
C661        H674   1.083       .  S
C662        C665   1.492       .  S
C662        C663   1.408       .  A
C663        C664   1.399       .  A
C663        H675   1.081       .  S
C664        H676   1.083       .  S
C665        C666   1.351       .  D
C665        H677   1.085       .  S
C666        C667   1.490       .  S
C666        H678   1.084       .  S
C667        C668   1.406       .  A
C667        C672   1.408       .  A
C668        C669   1.400       .  A
C668        H679   1.083       .  S
C669        C670   1.401       .  A
C669        H680   1.081       .  S
C670        C671   1.406       .  A
C671        C672   1.399       .  A
C671        H681   1.083       .  S
C672        H682   1.081       .  S
C683        H684   1.111       .  S
C683        C689   1.543       .  S
C683        C688   1.546       .  S
C683        C687   1.544       .  S
C685        H686   1.110       .  S
C685        C691   1.529       .  S
C685        C690   1.529       .  S
C685        C692   1.534       .  S
C687        C690   1.374       .  D
C687       C1352   1.488       .  S
C688        C691   1.375       .  D
C688       C1328   1.491       .  S
C689        C692   1.379       .  D
C689       C1293   1.482       .  S
C690       C1269   1.481       .  S
C691       C1256   1.474       .  S
C692       C1232   1.495       .  S
C693        H694   1.111       .  S
C693        C699   1.549       .  S
C693        C698   1.547       .  S
C693        C697   1.544       .  S
C695        H696   1.112       .  S
C695        C701   1.524       .  S
C695        C700   1.530       .  S
C695        C702   1.526       .  S
C697        C700   1.374       .  D
C697       C1160   1.487       .  S
C698        C701   1.372       .  D
C698       C1173   1.485       .  S
C699        C702   1.376       .  D
C699       C1197   1.486       .  S
C700       C1112   1.480       .  S
C701       C1136   1.472       .  S
C702       C1077   1.485       .  S
C703        H704   1.111       .  S
C703       C1391   1.542       .  S
C703        C708   1.538   1_655  S
C705       H2070   1.111       .  S
C705        C711   1.538   1_655  S
C705       C1394   1.540       .  S
H706       C2069   1.111       .  S
C707        C710   1.380       .  D
C707       C1341   1.491       .  S
C708        C711   1.374       .  D
C708       C1304   1.487       .  S
C709       C1385   1.542   1_565  S
C709        C712   1.377       .  D
C709       C1317   1.490       .  S
C710       C1184   1.493       .  S
C711       C1208   1.486       .  S
C712       C1387   1.540   1_565  S
C712       C1149   1.488       .  S
C713        H714   1.111       .  S
C713        C719   1.542       .  S
C713        C718   1.545       .  S
C713        C717   1.542       .  S
C715        H716   1.112       .  S
C715        C721   1.526       .  S
C715        C720   1.524       .  S
C715        C722   1.526       .  S
C717        C720   1.371       .  D
C717       C1064   1.483       .  S
C718        C721   1.376       .  D
C718       C1040   1.483       .  S
C719        C722   1.373       .  D
C719       C1005   1.480       .  S
C720        C944   1.471       .  S
C721        C992   1.475       .  S
C722        C957   1.477       .  S
C723        H724   1.110       .  S
C723        C729   1.529       .  S
C723        C728   1.528       .  S
C723        C727   1.529       .  S
C725        H726   1.111       .  S
C725        C731   1.547       .  S
C725        C730   1.546       .  S
C725        C732   1.543       .  S
C727        C730   1.375       .  D
C727        C800   1.490       .  S
C728        C731   1.377       .  D
C728        C848   1.479       .  S
C729        C732   1.373       .  D
C729        C824   1.479       .  S
C730        C909   1.483       .  S
C731        C896   1.491       .  S
C732        C872   1.486       .  S
C733        H734   1.111       .  S
C733        C739   1.537       .  S
C733       C1420   1.539   1_455  S
C733       C2101   1.544   1_455  S
C735        H736   1.111       .  S
C735       C1423   1.534       .  S
C735       C2104   1.537       .  S
C735        C742   1.536   1_655  S
C737       C2097   1.544       .  S
C737        C740   1.380       .  D
C737        C885   1.494       .  S
C738       C1415   1.539   1_565  S
C738        C741   1.373       .  D
C738        C861   1.486       .  S
C739        C742   1.376       .  D
C739        C920   1.484       .  S
C740       C2099   1.537       .  S
C740       C1029   1.485       .  S
C741       C1417   1.534   1_565  S
C741       C1016   1.480       .  S
C742       C1053   1.486       .  S
Zn743       O747   1.935       .  S
Zn743       O748   1.999       .  S
Zn743      O1434   1.986   1_455  S
Zn744       O747   1.948       .  S
Zn744      O2113   1.991   1_456  S
Zn744       O751   2.026       .  S
Zn744       O755   1.998   1_556  S
Zn745      O1429   1.969   1_565  S
Zn745       O750   2.043       .  S
Zn745       O756   2.020   1_556  S
Zn746      O2118   2.030   1_456  S
Zn746       O758   2.045       .  S
O747      Zn1427   1.969   1_455  S
O748        C760   1.270       .  A
O749      Zn2108   1.991   1_554  S
O749        C761   1.272       .  A
O750        C762   1.277       .  A
O751        C760   1.273       .  A
O752      Zn1425   1.987   1_565  S
O752        C762   1.271       .  A
O753        C761   1.276       .  A
O754      Zn2110   2.030   1_554  S
O754        C763   1.276       .  A
O755        C764   1.272       .  A
O756        C763   1.276       .  A
O757        C764   1.275       .  A
O758        C765   1.277       .  A
O759        C765   1.270       .  A
C760       C1088   1.482       .  S
C761        C837   1.481       .  S
C762       C1101   1.481       .  S
C763        C813   1.485       .  S
C764        C789   1.480       .  S
C765       C1125   1.477       .  S
Zn766      O2134   1.960       .  S
Zn766       O771   2.021       .  S
Zn766      O2139   2.017       .  S
Zn767       O770   1.938       .  S
Zn767       O772   2.000       .  S
Zn767      O2138   1.993   1_455  S
Zn767      O1460   1.987   1_455  S
Zn768       O770   1.953       .  S
Zn768       O773   2.006       .  S
Zn768       O776   2.030       .  S
Zn769      O1452   1.965   1_565  S
Zn769      O2141   2.023       .  S
Zn769       O780   2.031       .  S
Zn769       O781   2.019       .  S
O770      Zn2130   1.960   1_455  S
O770      Zn1451   1.965   1_455  S
O771        C783   1.274       .  A
O772        C784   1.272       .  A
O773        C785   1.273       .  A
O774      Zn2131   1.993       .  S
O774        C783   1.271       .  A
O775      Zn2130   2.017   1_455  S
O775        C785   1.274       .  A
O776        C784   1.274       .  A
O777      Zn2133   2.023   1_455  S
O777        C786   1.275       .  A
O778      Zn1449   1.987       .  S
O778        C787   1.271       .  A
O779        C786   1.274       .  A
O780        C787   1.275       .  A
O781        C788   1.275       .  A
O782        C788   1.274       .  A
C783        C981   1.478       .  S
C784        C933   1.480       .  S
C785       C1221   1.476       .  S
C786       C1280   1.481       .  S
C787        C968   1.480       .  S
C788       C1245   1.481       .  S
C789        C790   1.405       .  A
C789        C794   1.406       .  A
C790        C791   1.394       .  A
C790        H803   1.083       .  S
C791        C792   1.402       .  A
C791        H804   1.084       .  S
C792        C795   1.485       .  S
C792        C793   1.409       .  A
C793        C794   1.400       .  A
C793        H805   1.081       .  S
C794        H806   1.083       .  S
C795        C796   1.347       .  D
C795        H807   1.085       .  S
C796        C797   1.486       .  S
C796        H808   1.084       .  S
C797        C798   1.404       .  A
C797        C802   1.407       .  A
C798        C799   1.399       .  A
C798        H809   1.083       .  S
C799        C800   1.406       .  A
C799        H810   1.082       .  S
C800        C801   1.402       .  A
C801        C802   1.394       .  A
C801        H811   1.079       .  S
C802        H812   1.081       .  S
C813        C814   1.405       .  A
C813        C818   1.407       .  A
C814        C815   1.396       .  A
C814        H827   1.083       .  S
C815        C816   1.404       .  A
C815        H828   1.083       .  S
C816        C819   1.491       .  S
C816        C817   1.410       .  A
C817        C818   1.402       .  A
C817        H829   1.079       .  S
C818        H830   1.083       .  S
C819        C820   1.349       .  D
C819        H831   1.085       .  S
C820        C821   1.488       .  S
C820        H832   1.083       .  S
C821        C822   1.405       .  A
C821        C826   1.409       .  A
C822        C823   1.400       .  A
C822        H833   1.083       .  S
C823        C824   1.402       .  A
C823        H834   1.083       .  S
C824        C825   1.398       .  A
C825        C826   1.395       .  A
C825        H835   1.080       .  S
C826        H836   1.081       .  S
C837        C838   1.406       .  A
C837        C842   1.406       .  A
C838        C839   1.392       .  A
C838        H851   1.083       .  S
C839        C840   1.400       .  A
C839        H852   1.084       .  S
C840        C843   1.483       .  S
C840        C841   1.409       .  A
C841        C842   1.402       .  A
C841        H853   1.081       .  S
C842        H854   1.083       .  S
C843        C844   1.345       .  D
C843        H855   1.085       .  S
C844        C845   1.486       .  S
C844        H856   1.085       .  S
C845        C846   1.404       .  A
C845        C850   1.409       .  A
C846        C847   1.398       .  A
C846        H857   1.083       .  S
C847        C848   1.402       .  A
C847        H858   1.083       .  S
C848        C849   1.401       .  A
C849        C850   1.394       .  A
C849        H859   1.084       .  S
C850        H860   1.081       .  S
C861        C862   1.400       .  A
C861        C866   1.405       .  A
C862        C863   1.399       .  A
C862        H875   1.079       .  S
C863        C864   1.405       .  A
C863        H876   1.083       .  S
C864        C867   1.488       .  S
C864        C865   1.408       .  A
C865        C866   1.399       .  A
C865        H877   1.081       .  S
C866       H2242   1.083       .  S
C867        C868   1.350       .  D
C867        H879   1.084       .  S
C868        C869   1.490       .  S
C868        H880   1.085       .  S
C869        C870   1.406       .  A
C869        C874   1.408       .  A
C870        C871   1.401       .  A
C870        H881   1.083       .  S
C871        C872   1.402       .  A
C871        H882   1.083       .  S
C872        C873   1.404       .  A
C873        C874   1.397       .  A
C873        H883   1.083       .  S
C874        H884   1.081       .  S
H878       C2230   1.083       .  S
C885        C886   1.404       .  A
C885        C890   1.408       .  A
C886        C887   1.400       .  A
C886        H899   1.078       .  S
C887        C888   1.402       .  A
C887        H900   1.083       .  S
C888        C891   1.482       .  S
C888        C889   1.403       .  A
C889        C890   1.399       .  A
C889        H901   1.083       .  S
C890        H902   1.083       .  S
C891        C892   1.347       .  D
C891        H903   1.087       .  S
C892        C893   1.485       .  S
C892        H904   1.087       .  S
C893        C894   1.405       .  A
C893        C898   1.404       .  A
C894        C895   1.403       .  A
C894        H905   1.083       .  S
C895        C896   1.403       .  A
C895        H906   1.082       .  S
C896        C897   1.407       .  A
C897        C898   1.397       .  A
C897        H907   1.083       .  S
C898        H908   1.083       .  S
C909        C910   1.404       .  A
C909        C914   1.401       .  A
C910        C911   1.397       .  A
C910        H923   1.083       .  S
C911        C912   1.403       .  A
C911        H924   1.083       .  S
C912        C915   1.489       .  S
C912        C913   1.411       .  A
C913        C914   1.403       .  A
C913        H925   1.081       .  S
C914        H926   1.082       .  S
C915        C916   1.347       .  D
C915        H927   1.086       .  S
C916        C917   1.487       .  S
C916        H928   1.085       .  S
C917        C918   1.403       .  A
C917        C922   1.410       .  A
C918        C919   1.396       .  A
C918        H929   1.083       .  S
C919        C920   1.404       .  A
C920        C921   1.402       .  A
C921        C922   1.402       .  A
C921        H931   1.083       .  S
C922        H932   1.082       .  S
C933        C934   1.406       .  A
C933        C938   1.406       .  A
C934        C935   1.401       .  A
C934        H947   1.083       .  S
C935        C936   1.403       .  A
C935        H948   1.083       .  S
C936        C939   1.480       .  S
C936        C937   1.404       .  A
C937        C938   1.395       .  A
C937        H949   1.083       .  S
C938        H950   1.083       .  S
C939        C940   1.344       .  D
C939        H951   1.087       .  S
C940        C941   1.477       .  S
C940        H952   1.087       .  S
C941        C942   1.402       .  A
C941        C946   1.407       .  A
C942        C943   1.396       .  A
C942        H953   1.083       .  S
C943        C944   1.400       .  A
C943        H954   1.084       .  S
C944        C945   1.400       .  A
C945        C946   1.398       .  A
C945        H955   1.083       .  S
C946        H956   1.083       .  S
C957        C958   1.402       .  A
C957        C962   1.400       .  A
C958        C959   1.397       .  A
C958        H971   1.083       .  S
C959        C960   1.405       .  A
C959        H972   1.083       .  S
C960        C963   1.484       .  S
C960        C961   1.408       .  A
C961        C962   1.396       .  A
C961        H973   1.081       .  S
C962        H974   1.084       .  S
C963        C964   1.348       .  D
C963        H975   1.085       .  S
C964        C965   1.485       .  S
C964        H976   1.085       .  S
C965        C966   1.405       .  A
C965        C970   1.406       .  A
C966        C967   1.400       .  A
C966        H977   1.083       .  S
C967        C968   1.405       .  A
C967        H978   1.083       .  S
C968        C969   1.406       .  A
C969        C970   1.393       .  A
C969        H979   1.083       .  S
C970        H980   1.081       .  S
C981        C982   1.407       .  A
C981        C986   1.404       .  A
C982        C983   1.396       .  A
C982        H995   1.083       .  S
C983        C984   1.401       .  A
C983        H996   1.083       .  S
C984        C987   1.483       .  S
C984        C985   1.409       .  A
C985        C986   1.397       .  A
C985        H997   1.082       .  S
C986        H998   1.083       .  S
C987        C988   1.344       .  D
C987        H999   1.084       .  S
C988        C989   1.483       .  S
C988       H1000   1.086       .  S
C989        C990   1.403       .  A
C989        C994   1.411       .  A
C990        C991   1.392       .  A
C990       H1001   1.083       .  S
C991        C992   1.400       .  A
C991       H1002   1.084       .  S
C992        C993   1.402       .  A
C993        C994   1.399       .  A
C993       H1003   1.083       .  S
C994       H1004   1.080       .  S
C1005      C1006   1.401       .  A
C1005      C1010   1.403       .  A
C1006      C1007   1.400       .  A
C1006      H1019   1.083       .  S
C1007      C1008   1.406       .  A
C1007      H1020   1.083       .  S
C1008      C1011   1.486       .  S
C1008      C1009   1.407       .  A
C1009      C1010   1.397       .  A
C1009      H1021   1.082       .  S
C1010      H1022   1.083       .  S
C1011      C1012   1.347       .  D
C1011      H1023   1.087       .  S
C1012      C1013   1.483       .  S
C1012      H1024   1.086       .  S
C1013      C1014   1.403       .  A
C1013      C1018   1.408       .  A
C1014      C1015   1.397       .  A
C1014      H1025   1.083       .  S
C1015      C1016   1.403       .  A
C1015      H1026   1.083       .  S
C1016      C1017   1.401       .  A
C1017      C1018   1.400       .  A
C1017      H2391   1.081       .  S
C1018      H1028   1.083       .  S
H1027      C2381   1.081   1_455  S
C1029      C1030   1.402       .  A
C1029      C1034   1.404       .  A
C1030      C1031   1.399       .  A
C1030      H1043   1.083       .  S
C1031      C1032   1.405       .  A
C1031      H1044   1.083       .  S
C1032      C1035   1.488       .  S
C1032      C1033   1.408       .  A
C1033      C1034   1.398       .  A
C1033      H1045   1.081       .  S
C1034      H1046   1.083       .  S
C1035      C1036   1.349       .  D
C1035      H1047   1.085       .  S
C1036      C1037   1.486       .  S
C1036      H1048   1.085       .  S
C1037      C1038   1.405       .  A
C1037      C1042   1.407       .  A
C1038      C1039   1.399       .  A
C1038      H1049   1.083       .  S
C1039      C1040   1.401       .  A
C1039      H1050   1.083       .  S
C1040      C1041   1.404       .  A
C1041      C1042   1.397       .  A
C1041      H1051   1.083       .  S
C1042      H1052   1.082       .  S
C1053      C1054   1.401       .  A
C1053      C1058   1.403       .  A
C1054      C1055   1.401       .  A
C1055      C1056   1.407       .  A
C1055      H1068   1.083       .  S
C1056      C1059   1.491       .  S
C1056      C1057   1.408       .  A
C1057      C1058   1.396       .  A
C1057      H1069   1.080       .  S
C1058      H1070   1.083       .  S
C1059      C1060   1.351       .  D
C1059      H1071   1.085       .  S
C1060      C1061   1.487       .  S
C1060      H1072   1.084       .  S
C1061      C1062   1.406       .  A
C1061      C1066   1.407       .  A
C1062      C1063   1.400       .  A
C1062      H1073   1.083       .  S
C1063      C1064   1.401       .  A
C1063      H1074   1.083       .  S
C1064      C1065   1.404       .  A
C1065      C1066   1.398       .  A
C1065      H1075   1.082       .  S
C1066      H1076   1.081       .  S
C1077      C1078   1.404       .  A
C1077      C1082   1.402       .  A
C1078      C1079   1.399       .  A
C1078      H1091   1.083       .  S
C1079      C1080   1.404       .  A
C1079      H1092   1.083       .  S
C1080      C1083   1.484       .  S
C1080      C1081   1.406       .  A
C1081      C1082   1.396       .  A
C1081      H1093   1.082       .  S
C1082      H1094   1.081       .  S
C1083      C1084   1.347       .  D
C1083      H1095   1.086       .  S
C1084      C1085   1.484       .  S
C1084      H1096   1.086       .  S
C1085      C1086   1.404       .  A
C1085      C1090   1.406       .  A
C1086      C1087   1.399       .  A
C1086      H1097   1.083       .  S
C1087      C1088   1.405       .  A
C1087      H1098   1.083       .  S
C1088      C1089   1.407       .  A
C1089      C1090   1.397       .  A
C1089      H1099   1.083       .  S
C1090      H1100   1.082       .  S
C1101      C1102   1.406       .  A
C1101      C1106   1.405       .  A
C1102      C1103   1.393       .  A
C1102      H1115   1.083       .  S
C1103      C1104   1.400       .  A
C1103      H1116   1.084       .  S
C1104      C1107   1.485       .  S
C1104      C1105   1.410       .  A
C1105      C1106   1.401       .  A
C1105      H1117   1.081       .  S
C1106      H1118   1.083       .  S
C1107      C1108   1.345       .  D
C1107      H1119   1.084       .  S
C1108      C1109   1.487       .  S
C1108      H1120   1.085       .  S
C1109      C1110   1.403       .  A
C1109      C1114   1.411       .  A
C1110      C1111   1.395       .  A
C1110      H1121   1.083       .  S
C1111      C1112   1.402       .  A
C1111      H1122   1.083       .  S
C1112      C1113   1.402       .  A
C1113      C1114   1.398       .  A
C1113      H1123   1.083       .  S
C1114      H1124   1.080       .  S
C1125      C1126   1.406       .  A
C1125      C1130   1.403       .  A
C1126      C1127   1.394       .  A
C1126      H1139   1.083       .  S
C1127      C1128   1.400       .  A
C1127      H1140   1.084       .  S
C1128      C1131   1.483       .  S
C1128      C1129   1.409       .  A
C1129      C1130   1.400       .  A
C1129      H1141   1.082       .  S
C1130      H1142   1.083       .  S
C1131      C1132   1.345       .  D
C1131      H1143   1.085       .  S
C1132      C1133   1.485       .  S
C1132      H1144   1.086       .  S
C1133      C1134   1.404       .  A
C1133      C1138   1.410       .  A
C1134      C1135   1.395       .  A
C1134      H1145   1.083       .  S
C1135      C1136   1.399       .  A
C1135      H1146   1.082       .  S
C1136      C1137   1.400       .  A
C1137      C1138   1.399       .  A
C1137      H1147   1.083       .  S
C1138      H1148   1.081       .  S
C1149      C1150   1.401       .  A
C1149      C1154   1.404       .  A
C1150      C1151   1.400       .  A
C1150      H1163   1.078       .  S
C1151      C1152   1.405       .  A
C1151      H1164   1.083       .  S
C1152      C1155   1.493       .  S
C1152      C1153   1.410       .  A
C1153      C1154   1.404       .  A
C1153      H1165   1.081       .  S
C1154      H1166   1.083   1_565  S
C1155      C1156   1.349       .  D
C1155      H1167   1.086       .  S
C1156      C1157   1.492       .  S
C1156      H1168   1.085       .  S
C1157      C1158   1.404       .  A
C1157      C1162   1.410       .  A
C1158      C1159   1.400       .  A
C1158      H1169   1.083       .  S
C1159      C1160   1.404       .  A
C1159      H1170   1.083       .  S
C1160      C1161   1.402       .  A
C1161      C1162   1.403       .  A
C1161      H1171   1.081       .  S
C1162      H1172   1.082       .  S
C1173      C1174   1.402       .  A
C1173      C1178   1.404       .  A
C1174      C1175   1.402       .  A
C1174      H1187   1.083       .  S
C1175      C1176   1.406       .  A
C1175      H1188   1.083       .  S
C1176      C1179   1.491       .  S
C1176      C1177   1.408       .  A
C1177      C1178   1.398       .  A
C1177      H1189   1.081       .  S
C1178      H1190   1.083       .  S
C1179      C1180   1.351       .  D
C1179      H1191   1.084       .  S
C1180      C1181   1.491       .  S
C1180      H1192   1.085       .  S
C1181      C1182   1.404       .  A
C1181      C1186   1.409       .  A
C1182      C1183   1.399       .  A
C1182      H1193   1.084       .  S
C1183      C1184   1.402       .  A
C1183      H2558   1.077   1_455  S
C1184      C1185   1.406       .  A
C1185      C1186   1.401       .  A
C1186      H1196   1.081       .  S
H1194      C2547   1.077       .  S
C1197      C1198   1.401       .  A
C1197      C1202   1.405       .  A
C1198      C1199   1.401       .  A
C1198      H1211   1.081       .  S
C1199      C1200   1.406       .  A
C1199      H1212   1.083       .  S
C1200      C1203   1.490       .  S
C1200      C1201   1.407       .  A
C1201      C1202   1.397       .  A
C1201      H1213   1.081       .  S
C1202      H1214   1.083       .  S
C1203      C1204   1.351       .  D
C1203      H1215   1.084       .  S
C1204      C1205   1.491       .  S
C1204      H1216   1.085       .  S
C1205      C1206   1.407       .  A
C1205      C1210   1.408       .  A
C1206      C1207   1.401       .  A
C1206      H1217   1.083       .  S
C1207      C1208   1.401       .  A
C1207      H2582   1.083   1_455  S
C1208      C1209   1.404       .  A
C1209      C1210   1.397       .  A
C1209      H1219   1.083       .  S
C1210      H1220   1.081       .  S
H1218      C2571   1.083       .  S
C1221      C1222   1.406       .  A
C1221      C1226   1.405       .  A
C1222      C1223   1.398       .  A
C1222      H1235   1.083       .  S
C1223      C1224   1.401       .  A
C1223      H1236   1.083       .  S
C1224      C1227   1.474       .  S
C1224      C1225   1.403       .  A
C1225      C1226   1.395       .  A
C1225      H1237   1.083       .  S
C1226      H1238   1.083       .  S
C1227      C1228   1.342       .  D
C1227      H1239   1.087       .  S
C1228      C1229   1.475       .  S
C1228      H1240   1.087       .  S
C1229      C1230   1.400       .  A
C1229      C1234   1.401       .  A
C1230      C1231   1.398       .  A
C1230      H1241   1.083       .  S
C1231      C1232   1.408       .  A
C1231      H1242   1.080       .  S
C1232      C1233   1.407       .  A
C1233      C1234   1.395       .  A
C1233      H1243   1.079       .  S
C1234      H1244   1.083       .  S
C1245      C1246   1.406       .  A
C1245      C1250   1.405       .  A
C1246      C1247   1.398       .  A
C1246      H1259   1.083       .  S
C1247      C1248   1.403       .  A
C1247      H1260   1.083       .  S
C1248      C1251   1.486       .  S
C1248      C1249   1.408       .  A
C1249      C1250   1.397       .  A
C1249      H1261   1.081       .  S
C1250      H1262   1.083       .  S
C1251      C1252   1.346       .  D
C1251      H1263   1.084       .  S
C1252      C1253   1.486       .  S
C1252      H1264   1.085       .  S
C1253      C1254   1.403       .  A
C1253      C1258   1.411       .  A
C1254      C1255   1.393       .  A
C1254      H1265   1.083       .  S
C1255      C1256   1.398       .  A
C1255      H1266   1.081       .  S
C1256      C1257   1.401       .  A
C1257      C1258   1.401       .  A
C1257      H1267   1.083       .  S
C1258      H1268   1.080       .  S
C1269      C1270   1.403       .  A
C1269      C1274   1.400       .  A
C1270      C1271   1.398       .  A
C1270      H1283   1.083       .  S
C1271      C1272   1.405       .  A
C1271      H1284   1.083       .  S
C1272      C1275   1.487       .  S
C1272      C1273   1.409       .  A
C1273      C1274   1.395       .  A
C1273      H1285   1.080       .  S
C1274      H1286   1.084       .  S
C1275      C1276   1.347       .  D
C1275      H1287   1.085       .  S
C1276      C1277   1.485       .  S
C1276      H1288   1.084       .  S
C1277      C1278   1.402       .  A
C1277      C1282   1.409       .  A
C1278      C1279   1.395       .  A
C1278      H1289   1.083       .  S
C1279      C1280   1.405       .  A
C1280      C1281   1.406       .  A
C1281      C1282   1.400       .  A
C1281      H1291   1.083       .  S
C1282      H1292   1.081       .  S
C1293      C1294   1.403       .  A
C1293      C1298   1.401       .  A
C1294      C1295   1.398       .  A
C1294      H1307   1.083       .  S
C1295      C1296   1.404       .  A
C1295      H1308   1.083       .  S
C1296      C1299   1.490       .  S
C1296      C1297   1.410       .  A
C1297      C1298   1.401       .  A
C1297      H1309   1.082       .  S
C1298      H1310   1.081       .  S
C1299      C1300   1.349       .  D
C1299      H1311   1.085       .  S
C1300      C1301   1.491       .  S
C1300      H1312   1.085       .  S
C1301      C1302   1.404       .  A
C1301      C1306   1.410       .  A
C1302      C1303   1.398       .  A
C1302      H1313   1.083       .  S
C1303      C1304   1.404       .  A
C1303      H2678   1.083   1_455  S
C1304      C1305   1.402       .  A
C1305      C1306   1.402       .  A
C1305      H1315   1.081       .  S
C1306      H1316   1.081       .  S
H1314      C2667   1.083       .  S
C1317      C1318   1.404       .  A
C1317      C1322   1.407       .  A
C1318      C1319   1.401       .  A
C1318      H1331   1.083   1_565  S
C1319      C1320   1.403       .  A
C1319      H1332   1.083       .  S
C1320      C1323   1.482       .  S
C1320      C1321   1.403       .  A
C1321      C1322   1.397       .  A
C1321      H1333   1.083       .  S
C1322      H1334   1.082       .  S
C1323      C1324   1.346       .  D
C1323      H1335   1.087       .  S
C1324      C1325   1.482       .  S
C1324      H1336   1.087       .  S
C1325      C1326   1.403       .  A
C1325      C1330   1.403       .  A
C1326      C1327   1.401       .  A
C1326      H1337   1.083       .  S
C1327      C1328   1.404       .  A
C1327      H1338   1.083       .  S
C1328      C1329   1.408       .  A
C1329      C1330   1.398       .  A
C1329      H1339   1.080       .  S
C1330      H1340   1.083       .  S
C1341      C1342   1.402       .  A
C1341      C1346   1.405       .  A
C1342      C1343   1.401       .  A
C1342      H1355   1.080   1_565  S
C1343      C1344   1.406       .  A
C1343      H1356   1.083       .  S
C1344      C1347   1.492       .  S
C1344      C1345   1.408       .  A
C1345      C1346   1.399       .  A
C1345      H1357   1.081       .  S
C1346      H1358   1.083       .  S
C1347      C1348   1.351       .  D
C1347      H1359   1.085       .  S
C1348      C1349   1.490       .  S
C1348      H1360   1.084       .  S
C1349      C1350   1.406       .  A
C1349      C1354   1.408       .  A
C1350      C1351   1.400       .  A
C1350      H1361   1.083       .  S
C1351      C1352   1.401       .  A
C1351      H1362   1.081       .  S
C1352      C1353   1.406       .  A
C1353      C1354   1.399       .  A
C1353      H1363   1.083       .  S
C1354      H1364   1.081       .  S
C1365      H1366   1.111       .  S
C1365      C1371   1.543       .  S
C1365      C1370   1.546       .  S
C1365      C1369   1.544       .  S
C1367      H1368   1.110       .  S
C1367      C1373   1.529       .  S
C1367      C1372   1.529       .  S
C1367      C1374   1.534       .  S
C1369      C1372   1.374       .  D
C1369      C2034   1.488       .  S
C1370      C1373   1.375       .  D
C1370      C2010   1.491       .  S
C1371      C1374   1.379       .  D
C1371      C1975   1.482       .  S
C1372      C1951   1.481       .  S
C1373      C1938   1.474       .  S
C1374      C1914   1.495       .  S
C1375      H1376   1.111       .  S
C1375      C1381   1.549       .  S
C1375      C1380   1.547       .  S
C1375      C1379   1.544       .  S
C1377      H1378   1.112       .  S
C1377      C1383   1.524       .  S
C1377      C1382   1.530       .  S
C1377      C1384   1.526       .  S
C1379      C1382   1.374       .  D
C1379      C1842   1.487       .  S
C1380      C1383   1.372       .  D
C1380      C1855   1.485       .  S
C1381      C1384   1.376       .  D
C1381      C1879   1.486       .  S
C1382      C1794   1.479       .  S
C1383      C1818   1.472       .  S
C1384      C1759   1.485       .  S
C1385      H1386   1.111       .  S
C1385      C1390   1.538       .  S
C1385      C2071   1.543   1_545  S
C1387      C1393   1.538       .  S
C1387      C2074   1.540   1_545  S
C1389      C2067   1.543       .  S
C1389      C1392   1.380       .  D
C1389      C2023   1.491       .  S
C1390      C1393   1.374       .  D
C1390      C1986   1.487       .  S
C1391      C1394   1.377       .  D
C1391      C1999   1.490       .  S
C1392      C2069   1.540       .  S
C1392      C1866   1.493       .  S
C1393      C1890   1.486       .  S
C1394      C1831   1.488       .  S
C1395      H1396   1.111       .  S
C1395      C1401   1.542       .  S
C1395      C1400   1.545       .  S
C1395      C1399   1.542       .  S
C1397      H1398   1.112       .  S
C1397      C1403   1.526       .  S
C1397      C1402   1.524       .  S
C1397      C1404   1.526       .  S
C1399      C1402   1.372       .  D
C1399      C1746   1.483       .  S
C1400      C1403   1.376       .  D
C1400      C1722   1.483       .  S
C1401      C1404   1.373       .  D
C1401      C1687   1.480       .  S
C1402      C1626   1.471       .  S
C1403      C1674   1.476       .  S
C1404      C1639   1.477       .  S
C1405      H1406   1.110       .  S
C1405      C1411   1.529       .  S
C1405      C1410   1.528       .  S
C1405      C1409   1.529       .  S
C1407      H1408   1.111       .  S
C1407      C1413   1.547       .  S
C1407      C1412   1.546       .  S
C1407      C1414   1.543       .  S
C1409      C1412   1.375       .  D
C1409      C1482   1.490       .  S
C1410      C1413   1.377       .  D
C1410      C1530   1.479       .  S
C1411      C1414   1.373       .  D
C1411      C1506   1.479       .  S
C1412      C1591   1.483       .  S
C1413      C1578   1.491       .  S
C1414      C1554   1.486       .  S
C1415      H1416   1.111       .  S
C1415      C1421   1.537       .  S
C1417      H1418   1.111   1_545  S
C1417      C1424   1.536       .  S
C1419      C1422   1.380       .  D
C1419      C1567   1.494       .  S
C1420      C1423   1.373       .  D
C1420      C1543   1.486       .  S
C1421      C1424   1.376       .  D
C1421      C1602   1.484       .  S
C1422      C1711   1.485       .  S
C1423      C1698   1.480       .  S
C1424      C1735   1.486       .  S
Zn1425     O1429   1.935       .  S
Zn1425     O1430   1.999       .  S
Zn1425     O2123   1.982   1_545  S
Zn1426     O1429   1.948       .  S
Zn1426     O1433   2.026       .  S
Zn1426     O1437   1.998   1_556  S
Zn1427     O1432   2.043       .  S
Zn1427     O2117   2.037   1_556  S
Zn1427     O1438   2.020   1_556  S
Zn1428     O2111   1.973       .  S
Zn1428     O2121   2.026   1_556  S
Zn1428     O1440   2.045       .  S
O1429     Zn2110   1.973   1_545  S
O1430      C1442   1.270       .  A
O1431      C1443   1.272       .  A
O1432      C1444   1.277       .  A
O1433      C1442   1.273       .  A
O1434      C1444   1.271       .  A
O1435     Zn2109   2.037   1_544  S
O1435      C1443   1.276       .  A
O1436      C1445   1.276       .  A
O1437      C1446   1.272       .  A
O1438      C1445   1.276       .  A
O1439     Zn2110   2.026   1_544  S
O1439      C1446   1.275       .  A
O1440      C1447   1.277       .  A
O1441     Zn2107   1.982       .  S
O1441      C1447   1.270       .  A
C1442      C1770   1.482       .  S
C1443      C1519   1.481       .  S
C1444      C1783   1.481       .  S
C1445      C1495   1.485       .  S
C1446      C1471   1.480       .  S
C1447      C1807   1.477       .  S
Zn1448     O1453   2.021       .  S
Zn1448     O2146   2.014   1_545  S
Zn1449     O1452   1.938   1_565  S
Zn1449     O1454   2.000   1_565  S
Zn1450     O1452   1.953       .  S
Zn1450     O1455   2.006       .  S
Zn1450     O1458   2.030       .  S
Zn1450     O2143   2.007   1_545  S
Zn1451     O1462   2.031       .  S
Zn1451     O1463   2.019       .  S
O1453      C1465   1.274       .  A
O1454      C1466   1.272       .  A
O1455      C1467   1.273       .  A
O1456      C1465   1.271       .  A
O1457      C1467   1.274       .  A
O1458      C1466   1.274       .  A
O1459      C1468   1.275       .  A
O1460      C1469   1.271       .  A
O1461     Zn2132   2.007       .  S
O1461      C1468   1.274       .  A
O1462      C1469   1.275       .  A
O1463      C1470   1.275       .  A
O1464     Zn2130   2.014       .  S
O1464      C1470   1.274       .  A
C1465      C1663   1.478       .  S
C1466      C1615   1.480       .  S
C1467      C1903   1.476       .  S
C1468      C1962   1.481       .  S
C1469      C1650   1.480       .  S
C1470      C1927   1.481       .  S
C1471      C1472   1.405       .  A
C1471      C1476   1.406       .  A
C1472      C1473   1.394       .  A
C1472      H1485   1.083       .  S
C1473      C1474   1.402       .  A
C1473      H1486   1.084       .  S
C1474      C1477   1.485       .  S
C1474      C1475   1.409       .  A
C1475      C1476   1.400       .  A
C1475      H1487   1.081       .  S
C1476      H1488   1.083       .  S
C1477      C1478   1.347       .  D
C1477      H1489   1.085       .  S
C1478      C1479   1.486       .  S
C1478      H1490   1.084       .  S
C1479      C1480   1.404       .  A
C1479      C1484   1.407       .  A
C1480      C1481   1.399       .  A
C1480      H1491   1.083       .  S
C1481      C1482   1.406       .  A
C1481      H1492   1.082       .  S
C1482      C1483   1.402       .  A
C1483      C1484   1.394       .  A
C1483      H1493   1.078       .  S
C1484      H1494   1.081       .  S
C1495      C1496   1.405       .  A
C1495      C1500   1.407       .  A
C1496      C1497   1.396       .  A
C1496      H1509   1.083       .  S
C1497      C1498   1.404       .  A
C1497      H1510   1.083       .  S
C1498      C1501   1.491       .  S
C1498      C1499   1.410       .  A
C1499      C1500   1.402       .  A
C1499      H1511   1.079       .  S
C1500      H1512   1.083       .  S
C1501      C1502   1.349       .  D
C1501      H1513   1.085       .  S
C1502      C1503   1.488       .  S
C1502      H1514   1.083       .  S
C1503      C1504   1.405       .  A
C1503      C1508   1.409       .  A
C1504      C1505   1.400       .  A
C1504      H1515   1.083       .  S
C1505      C1506   1.403       .  A
C1505      H1516   1.083       .  S
C1506      C1507   1.398       .  A
C1507      C1508   1.395       .  A
C1507      H1517   1.080       .  S
C1508      H1518   1.081       .  S
C1519      C1520   1.406       .  A
C1519      C1524   1.406       .  A
C1520      C1521   1.392       .  A
C1520      H1533   1.083       .  S
C1521      C1522   1.400       .  A
C1521      H1534   1.084       .  S
C1522      C1525   1.483       .  S
C1522      C1523   1.409       .  A
C1523      C1524   1.402       .  A
C1523      H1535   1.081       .  S
C1524      H1536   1.083       .  S
C1525      C1526   1.345       .  D
C1525      H1537   1.085       .  S
C1526      C1527   1.486       .  S
C1526      H1538   1.085       .  S
C1527      C1528   1.404       .  A
C1527      C1532   1.409       .  A
C1528      C1529   1.398       .  A
C1528      H1539   1.083       .  S
C1529      C1530   1.402       .  A
C1529      H1540   1.083       .  S
C1530      C1531   1.401       .  A
C1531      C1532   1.394       .  A
C1531      H1541   1.084       .  S
C1532      H1542   1.081       .  S
C1543      C1544   1.400       .  A
C1543      C1548   1.405       .  A
C1544      C1545   1.399       .  A
C1544      H1557   1.079       .  S
C1545      C1546   1.405       .  A
C1545      H1558   1.083       .  S
C1546      C1549   1.488       .  S
C1546      C1547   1.408       .  A
C1547      C1548   1.399       .  A
C1547      H1559   1.081       .  S
C1549      C1550   1.350       .  D
C1549      H1561   1.084       .  S
C1550      C1551   1.491       .  S
C1550      H1562   1.085       .  S
C1551      C1552   1.406       .  A
C1551      C1556   1.408       .  A
C1552      C1553   1.401       .  A
C1552      H1563   1.083       .  S
C1553      C1554   1.402       .  A
C1553      H1564   1.083       .  S
C1554      C1555   1.404       .  A
C1555      C1556   1.397       .  A
C1555      H1565   1.083       .  S
C1556      H1566   1.081       .  S
C1567      C1568   1.403       .  A
C1567      C1572   1.408       .  A
C1568      C1569   1.400       .  A
C1568      H1581   1.078       .  S
C1569      C1570   1.402       .  A
C1569      H1582   1.083       .  S
C1570      C1573   1.482       .  S
C1570      C1571   1.403       .  A
C1571      C1572   1.399       .  A
C1571      H1583   1.083       .  S
C1572      H1584   1.083       .  S
C1573      C1574   1.347       .  D
C1573      H1585   1.087       .  S
C1574      C1575   1.485       .  S
C1574      H1586   1.087       .  S
C1575      C1576   1.405       .  A
C1575      C1580   1.404       .  A
C1576      C1577   1.403       .  A
C1576      H1587   1.083       .  S
C1577      C1578   1.403       .  A
C1577      H1588   1.082       .  S
C1578      C1579   1.407       .  A
C1579      C1580   1.397       .  A
C1579      H1589   1.083       .  S
C1580      H1590   1.083       .  S
C1591      C1592   1.404       .  A
C1591      C1596   1.401       .  A
C1592      C1593   1.397       .  A
C1592      H1605   1.083       .  S
C1593      C1594   1.403       .  A
C1593      H1606   1.083       .  S
C1594      C1597   1.489       .  S
C1594      C1595   1.411       .  A
C1595      C1596   1.403       .  A
C1595      H1607   1.081       .  S
C1596      H1608   1.082       .  S
C1597      C1598   1.347       .  D
C1597      H1609   1.086       .  S
C1598      C1599   1.487       .  S
C1598      H1610   1.085       .  S
C1599      C1600   1.403       .  A
C1599      C1604   1.410       .  A
C1600      C1601   1.396       .  A
C1600      H1611   1.083       .  S
C1601      C1602   1.404       .  A
C1601      H2294   1.083   1_545  S
C1602      C1603   1.402       .  A
C1603      C1604   1.402       .  A
C1603      H1613   1.083       .  S
C1604      H1614   1.082       .  S
H1612      C2283   1.083       .  S
C1615      C1616   1.406       .  A
C1615      C1620   1.406       .  A
C1616      C1617   1.401       .  A
C1616      H1629   1.083       .  S
C1617      C1618   1.403       .  A
C1617      H1630   1.083       .  S
C1618      C1621   1.480       .  S
C1618      C1619   1.404       .  A
C1619      C1620   1.395       .  A
C1619      H1631   1.083       .  S
C1620      H1632   1.083       .  S
C1621      C1622   1.344       .  D
C1621      H1633   1.087       .  S
C1622      C1623   1.477       .  S
C1622      H1634   1.087       .  S
C1623      C1624   1.402       .  A
C1623      C1628   1.407       .  A
C1624      C1625   1.396       .  A
C1624      H1635   1.083       .  S
C1625      C1626   1.400       .  A
C1625      H1636   1.084       .  S
C1626      C1627   1.400       .  A
C1627      C1628   1.398       .  A
C1627      H1637   1.083       .  S
C1628      H1638   1.083       .  S
C1639      C1640   1.402       .  A
C1639      C1644   1.400       .  A
C1640      C1641   1.397       .  A
C1640      H1653   1.083       .  S
C1641      C1642   1.405       .  A
C1641      H1654   1.083       .  S
C1642      C1645   1.484       .  S
C1642      C1643   1.408       .  A
C1643      C1644   1.396       .  A
C1643      H1655   1.081       .  S
C1644      H1656   1.084       .  S
C1645      C1646   1.348       .  D
C1645      H1657   1.085       .  S
C1646      C1647   1.485       .  S
C1646      H1658   1.085       .  S
C1647      C1648   1.405       .  A
C1647      C1652   1.406       .  A
C1648      C1649   1.400       .  A
C1648      H1659   1.083       .  S
C1649      C1650   1.405       .  A
C1649      H1660   1.083       .  S
C1650      C1651   1.406       .  A
C1651      C1652   1.393       .  A
C1651      H1661   1.083       .  S
C1652      H1662   1.081       .  S
C1663      C1664   1.407       .  A
C1663      C1668   1.404       .  A
C1664      C1665   1.396       .  A
C1664      H1677   1.083       .  S
C1665      C1666   1.401       .  A
C1665      H1678   1.083       .  S
C1666      C1669   1.483       .  S
C1666      C1667   1.409       .  A
C1667      C1668   1.397       .  A
C1667      H1679   1.082       .  S
C1668      H1680   1.083       .  S
C1669      C1670   1.344       .  D
C1669      H1681   1.084       .  S
C1670      C1671   1.483       .  S
C1670      H1682   1.086       .  S
C1671      C1672   1.403       .  A
C1671      C1676   1.411       .  A
C1672      C1673   1.392       .  A
C1672      H1683   1.083       .  S
C1673      C1674   1.400       .  A
C1673      H1684   1.084       .  S
C1674      C1675   1.402       .  A
C1675      C1676   1.399       .  A
C1675      H1685   1.083       .  S
C1676      H1686   1.080       .  S
C1687      C1688   1.401       .  A
C1687      C1692   1.403       .  A
C1688      C1689   1.400       .  A
C1688      H1701   1.083       .  S
C1689      C1690   1.406       .  A
C1689      H1702   1.083       .  S
C1690      C1693   1.486       .  S
C1690      C1691   1.407       .  A
C1691      C1692   1.397       .  A
C1691      H1703   1.082       .  S
C1692      H1704   1.083       .  S
C1693      C1694   1.347       .  D
C1693      H1705   1.087       .  S
C1694      C1695   1.483       .  S
C1694      H1706   1.086       .  S
C1695      C1696   1.403       .  A
C1695      C1700   1.408       .  A
C1696      C1697   1.397       .  A
C1696      H1707   1.083       .  S
C1697      C1698   1.403       .  A
C1697      H1708   1.083       .  S
C1698      C1699   1.401       .  A
C1699      C1700   1.400       .  A
C1700      H1710   1.083       .  S
C1711      C1712   1.402       .  A
C1711      C1716   1.404       .  A
C1712      C1713   1.399       .  A
C1712      H1725   1.083   1_655  S
C1713      C1714   1.405       .  A
C1713      H1726   1.083       .  S
C1714      C1717   1.488       .  S
C1714      C1715   1.408       .  A
C1715      C1716   1.398       .  A
C1715      H1727   1.081       .  S
C1716      H1728   1.083       .  S
C1717      C1718   1.349       .  D
C1717      H1729   1.085       .  S
C1718      C1719   1.486       .  S
C1718      H1730   1.085       .  S
C1719      C1720   1.405       .  A
C1719      C1724   1.407       .  A
C1720      C1721   1.399       .  A
C1720      H1731   1.083       .  S
C1721      C1722   1.401       .  A
C1721      H1732   1.083       .  S
C1722      C1723   1.404       .  A
C1723      C1724   1.397       .  A
C1723      H1733   1.083       .  S
C1724      H1734   1.082       .  S
C1735      C1736   1.401       .  A
C1735      C1740   1.403       .  A
C1736      C1737   1.401       .  A
C1736      H2431   1.081   1_545  S
C1737      C1738   1.407       .  A
C1737      H1750   1.083       .  S
C1738      C1741   1.491       .  S
C1738      C1739   1.408       .  A
C1739      C1740   1.396       .  A
C1739      H1751   1.080       .  S
C1740      H1752   1.083       .  S
C1741      C1742   1.351       .  D
C1741      H1753   1.085       .  S
C1742      C1743   1.487       .  S
C1742      H1754   1.084       .  S
C1743      C1744   1.406       .  A
C1743      C1748   1.407       .  A
C1744      C1745   1.400       .  A
C1744      H1755   1.083       .  S
C1745      C1746   1.401       .  A
C1745      H1756   1.083       .  S
C1746      C1747   1.404       .  A
C1747      C1748   1.398       .  A
C1747      H1757   1.082       .  S
C1748      H1758   1.081       .  S
H1749      C2418   1.081       .  S
C1759      C1760   1.404       .  A
C1759      C1764   1.402       .  A
C1760      C1761   1.399       .  A
C1760      H1773   1.083       .  S
C1761      C1762   1.404       .  A
C1761      H1774   1.083       .  S
C1762      C1765   1.484       .  S
C1762      C1763   1.406       .  A
C1763      C1764   1.396       .  A
C1763      H1775   1.082       .  S
C1764      H1776   1.081       .  S
C1765      C1766   1.347       .  D
C1765      H1777   1.086       .  S
C1766      C1767   1.484       .  S
C1766      H1778   1.086       .  S
C1767      C1768   1.404       .  A
C1767      C1772   1.406       .  A
C1768      C1769   1.399       .  A
C1768      H1779   1.083       .  S
C1769      C1770   1.405       .  A
C1769      H1780   1.083       .  S
C1770      C1771   1.407       .  A
C1771      C1772   1.397       .  A
C1771      H1781   1.083       .  S
C1772      H1782   1.082       .  S
C1783      C1784   1.407       .  A
C1783      C1788   1.405       .  A
C1784      C1785   1.393       .  A
C1784      H1797   1.083       .  S
C1785      C1786   1.400       .  A
C1785      H1798   1.084       .  S
C1786      C1789   1.485       .  S
C1786      C1787   1.410       .  A
C1787      C1788   1.401       .  A
C1787      H1799   1.081       .  S
C1788      H1800   1.083       .  S
C1789      C1790   1.345       .  D
C1789      H1801   1.084       .  S
C1790      C1791   1.487       .  S
C1790      H1802   1.085       .  S
C1791      C1792   1.403       .  A
C1791      C1796   1.411       .  A
C1792      C1793   1.395       .  A
C1792      H1803   1.083       .  S
C1793      C1794   1.402       .  A
C1793      H1804   1.083       .  S
C1794      C1795   1.402       .  A
C1795      C1796   1.398       .  A
C1795      H1805   1.083       .  S
C1796      H1806   1.080       .  S
C1807      C1808   1.406       .  A
C1807      C1812   1.403       .  A
C1808      C1809   1.394       .  A
C1808      H1821   1.083       .  S
C1809      C1810   1.400       .  A
C1809      H1822   1.084       .  S
C1810      C1813   1.483       .  S
C1810      C1811   1.409       .  A
C1811      C1812   1.400       .  A
C1811      H1823   1.082       .  S
C1812      H1824   1.083       .  S
C1813      C1814   1.345       .  D
C1813      H1825   1.085       .  S
C1814      C1815   1.484       .  S
C1814      H1826   1.086       .  S
C1815      C1816   1.404       .  A
C1815      C1820   1.410       .  A
C1816      C1817   1.395       .  A
C1816      H1827   1.083       .  S
C1817      C1818   1.399       .  A
C1817      H1828   1.082       .  S
C1818      C1819   1.400       .  A
C1819      C1820   1.399       .  A
C1819      H1829   1.083       .  S
C1820      H1830   1.081       .  S
C1831      C1832   1.401       .  A
C1831      C1836   1.404       .  A
C1832      C1833   1.400       .  A
C1832      H1845   1.078       .  S
C1833      C1834   1.405       .  A
C1833      H1846   1.083       .  S
C1834      C1837   1.493       .  S
C1834      C1835   1.410       .  A
C1835      C1836   1.404       .  A
C1835      H1847   1.081       .  S
C1836      H1848   1.083       .  S
C1837      C1838   1.349       .  D
C1837      H1849   1.086       .  S
C1838      C1839   1.492       .  S
C1838      H1850   1.085       .  S
C1839      C1840   1.404       .  A
C1839      C1844   1.410       .  A
C1840      C1841   1.400       .  A
C1840      H1851   1.083       .  S
C1841      C1842   1.404       .  A
C1841      H1852   1.083       .  S
C1842      C1843   1.402       .  A
C1843      C1844   1.403       .  A
C1843      H1853   1.081       .  S
C1844      H1854   1.082       .  S
C1855      C1856   1.402       .  A
C1855      C1860   1.404       .  A
C1856      C1857   1.402       .  A
C1856      H1869   1.083       .  S
C1857      C1858   1.406       .  A
C1857      H1870   1.083       .  S
C1858      C1861   1.491       .  S
C1858      C1859   1.408       .  A
C1859      C1860   1.398       .  A
C1859      H1871   1.081       .  S
C1860      H1872   1.083       .  S
C1861      C1862   1.351       .  D
C1861      H1873   1.084       .  S
C1862      C1863   1.491       .  S
C1862      H1874   1.085       .  S
C1863      C1864   1.404       .  A
C1863      C1868   1.409       .  A
C1864      C1865   1.399       .  A
C1864      H1875   1.084       .  S
C1865      C1866   1.402       .  A
C1866      C1867   1.406       .  A
C1867      C1868   1.401       .  A
C1867      H2559   1.083       .  S
C1868      H1878   1.081       .  S
H1877      C2549   1.083       .  S
C1879      C1880   1.401       .  A
C1879      C1884   1.405       .  A
C1880      C1881   1.401       .  A
C1880      H1893   1.081       .  S
C1881      C1882   1.406       .  A
C1881      H1894   1.083       .  S
C1882      C1885   1.490       .  S
C1882      C1883   1.407       .  A
C1883      C1884   1.397       .  A
C1883      H1895   1.081       .  S
C1884      H1896   1.083       .  S
C1885      C1886   1.351       .  D
C1885      H1897   1.084       .  S
C1886      C1887   1.491       .  S
C1886      H1898   1.085       .  S
C1887      C1888   1.407       .  A
C1887      C1892   1.408       .  A
C1888      C1889   1.401       .  A
C1888      H1899   1.083       .  S
C1889      C1890   1.401       .  A
C1890      C1891   1.404       .  A
C1891      C1892   1.397       .  A
C1891      H1901   1.083       .  S
C1892      H1902   1.081       .  S
C1903      C1904   1.406       .  A
C1903      C1908   1.405       .  A
C1904      C1905   1.398       .  A
C1904      H1917   1.083       .  S
C1905      C1906   1.401       .  A
C1905      H1918   1.083       .  S
C1906      C1909   1.474       .  S
C1906      C1907   1.403       .  A
C1907      C1908   1.395       .  A
C1907      H1919   1.083       .  S
C1908      H1920   1.083       .  S
C1909      C1910   1.342       .  D
C1909      H1921   1.087       .  S
C1910      C1911   1.475       .  S
C1910      H1922   1.087       .  S
C1911      C1912   1.400       .  A
C1911      C1916   1.401       .  A
C1912      C1913   1.398       .  A
C1912      H1923   1.083       .  S
C1913      C1914   1.408       .  A
C1913      H1924   1.080       .  S
C1914      C1915   1.407       .  A
C1915      C1916   1.395       .  A
C1915      H1925   1.079       .  S
C1916      H1926   1.083       .  S
C1927      C1928   1.406       .  A
C1927      C1932   1.405       .  A
C1928      C1929   1.398       .  A
C1928      H1941   1.083       .  S
C1929      C1930   1.403       .  A
C1929      H1942   1.083       .  S
C1930      C1933   1.486       .  S
C1930      C1931   1.408       .  A
C1931      C1932   1.397       .  A
C1931      H1943   1.081       .  S
C1932      H1944   1.083       .  S
C1933      C1934   1.346       .  D
C1933      H1945   1.084       .  S
C1934      C1935   1.486       .  S
C1934      H1946   1.085       .  S
C1935      C1936   1.403       .  A
C1935      C1940   1.411       .  A
C1936      C1937   1.393       .  A
C1936      H1947   1.083       .  S
C1937      C1938   1.398       .  A
C1937      H1948   1.081       .  S
C1938      C1939   1.400       .  A
C1939      C1940   1.401       .  A
C1939      H1949   1.083       .  S
C1940      H1950   1.080       .  S
C1951      C1952   1.403       .  A
C1951      C1956   1.400       .  A
C1952      C1953   1.398       .  A
C1952      H1965   1.083       .  S
C1953      C1954   1.405       .  A
C1953      H1966   1.083       .  S
C1954      C1957   1.487       .  S
C1954      C1955   1.409       .  A
C1955      C1956   1.395       .  A
C1955      H1967   1.080       .  S
C1956      H1968   1.084       .  S
C1957      C1958   1.347       .  D
C1957      H1969   1.085       .  S
C1958      C1959   1.485       .  S
C1958      H1970   1.084       .  S
C1959      C1960   1.402       .  A
C1959      C1964   1.409       .  A
C1960      C1961   1.395       .  A
C1960      H1971   1.083       .  S
C1961      C1962   1.405       .  A
C1961      H2654   1.083       .  S
C1962      C1963   1.406       .  A
C1963      C1964   1.400       .  A
C1963      H1973   1.083       .  S
C1964      H1974   1.081       .  S
H1972      C2643   1.083   1_545  S
C1975      C1976   1.403       .  A
C1975      C1980   1.401       .  A
C1976      C1977   1.398       .  A
C1976      H1989   1.083       .  S
C1977      C1978   1.404       .  A
C1977      H1990   1.083       .  S
C1978      C1981   1.490       .  S
C1978      C1979   1.410       .  A
C1979      C1980   1.401       .  A
C1979      H1991   1.082       .  S
C1980      H1992   1.081       .  S
C1981      C1982   1.349       .  D
C1981      H1993   1.085       .  S
C1982      C1983   1.491       .  S
C1982      H1994   1.085       .  S
C1983      C1984   1.404       .  A
C1983      C1988   1.410       .  A
C1984      C1985   1.398       .  A
C1984      H1995   1.083       .  S
C1985      C1986   1.404       .  A
C1986      C1987   1.402       .  A
C1987      C1988   1.402       .  A
C1987      H1997   1.081       .  S
C1988      H1998   1.081       .  S
C1999      C2000   1.404       .  A
C1999      C2004   1.407       .  A
C2000      C2001   1.401       .  A
C2000      H2013   1.083       .  S
C2001      C2002   1.403       .  A
C2001      H2014   1.083       .  S
C2002      C2005   1.482       .  S
C2002      C2003   1.403       .  A
C2003      C2004   1.397       .  A
C2003      H2015   1.083       .  S
C2004      H2016   1.082       .  S
C2005      C2006   1.346       .  D
C2005      H2017   1.087       .  S
C2006      C2007   1.482       .  S
C2006      H2018   1.087       .  S
C2007      C2008   1.403       .  A
C2007      C2012   1.403       .  A
C2008      C2009   1.401       .  A
C2008      H2019   1.083       .  S
C2009      C2010   1.404       .  A
C2009      H2020   1.083       .  S
C2010      C2011   1.408       .  A
C2011      C2012   1.398       .  A
C2011      H2021   1.080       .  S
C2012      H2022   1.083       .  S
C2023      C2024   1.402       .  A
C2023      C2028   1.405       .  A
C2024      C2025   1.401       .  A
C2024      H2037   1.080       .  S
C2025      C2026   1.406       .  A
C2025      H2038   1.083       .  S
C2026      C2029   1.492       .  S
C2026      C2027   1.408       .  A
C2027      C2028   1.399       .  A
C2027      H2039   1.081       .  S
C2028      H2040   1.083       .  S
C2029      C2030   1.351       .  D
C2029      H2041   1.085       .  S
C2030      C2031   1.490       .  S
C2030      H2042   1.084       .  S
C2031      C2032   1.406       .  A
C2031      C2036   1.408       .  A
C2032      C2033   1.400       .  A
C2032      H2043   1.083       .  S
C2033      C2034   1.401       .  A
C2033      H2044   1.081       .  S
C2034      C2035   1.406       .  A
C2035      C2036   1.399       .  A
C2035      H2045   1.083       .  S
C2036      H2046   1.081       .  S
C2047      H2048   1.111       .  S
C2047      C2053   1.543       .  S
C2047      C2052   1.546       .  S
C2047      C2051   1.544       .  S
C2049      H2050   1.110       .  S
C2049      C2055   1.529       .  S
C2049      C2054   1.529       .  S
C2049      C2056   1.534       .  S
C2051      C2054   1.374       .  D
C2051      C2716   1.488       .  S
C2052      C2055   1.375       .  D
C2052      C2692   1.491       .  S
C2053      C2056   1.379       .  D
C2053      C2657   1.482       .  S
C2054      C2633   1.481       .  S
C2055      C2620   1.474       .  S
C2056      C2596   1.495       .  S
C2057      H2058   1.111       .  S
C2057      C2063   1.549       .  S
C2057      C2062   1.547       .  S
C2057      C2061   1.544       .  S
C2059      H2060   1.112       .  S
C2059      C2065   1.524       .  S
C2059      C2064   1.530       .  S
C2059      C2066   1.526       .  S
C2061      C2064   1.374       .  D
C2061      C2524   1.487       .  S
C2062      C2065   1.372       .  D
C2062      C2537   1.485       .  S
C2063      C2066   1.376       .  D
C2063      C2561   1.486       .  S
C2064      C2476   1.480       .  S
C2065      C2500   1.472       .  S
C2066      C2441   1.485       .  S
C2067      H2068   1.111       .  S
C2067      C2072   1.538       .  S
C2069      C2075   1.538       .  S
C2071      C2074   1.380       .  D
C2071      C2705   1.491       .  S
C2072      C2075   1.374       .  D
C2072      C2668   1.487       .  S
C2073      C2076   1.377       .  D
C2073      C2681   1.490       .  S
C2074      C2548   1.493       .  S
C2075      C2572   1.486       .  S
C2076      C2513   1.488       .  S
C2077      H2078   1.111       .  S
C2077      C2083   1.542       .  S
C2077      C2082   1.545       .  S
C2077      C2081   1.542       .  S
C2079      H2080   1.112       .  S
C2079      C2085   1.526       .  S
C2079      C2084   1.524       .  S
C2079      C2086   1.526       .  S
C2081      C2084   1.371       .  D
C2081      C2428   1.483       .  S
C2082      C2085   1.376       .  D
C2082      C2404   1.483       .  S
C2083      C2086   1.373       .  D
C2083      C2369   1.480       .  S
C2084      C2308   1.471       .  S
C2085      C2356   1.475       .  S
C2086      C2321   1.477       .  S
C2087      H2088   1.110       .  S
C2087      C2093   1.529       .  S
C2087      C2092   1.528       .  S
C2087      C2091   1.529       .  S
C2089      H2090   1.111       .  S
C2089      C2095   1.547       .  S
C2089      C2094   1.546       .  S
C2089      C2096   1.543       .  S
C2091      C2094   1.375       .  D
C2091      C2164   1.490       .  S
C2092      C2095   1.377       .  D
C2092      C2212   1.479       .  S
C2093      C2096   1.373       .  D
C2093      C2188   1.479       .  S
C2094      C2273   1.483       .  S
C2095      C2260   1.491       .  S
C2096      C2236   1.486       .  S
C2097      H2098   1.111       .  S
C2097      C2103   1.537       .  S
C2099      H2100   1.111       .  S
C2099      C2106   1.536       .  S
C2101      C2104   1.380       .  D
C2101      C2249   1.494       .  S
C2102      C2105   1.373       .  D
C2102      C2225   1.486       .  S
C2103      C2106   1.376       .  D
C2103      C2284   1.484       .  S
C2104      C2393   1.485       .  S
C2105      C2380   1.480       .  S
C2106      C2417   1.486       .  S
Zn2107     O2111   1.935       .  S
Zn2107     O2112   1.999       .  S
Zn2108     O2111   1.948       .  S
Zn2108     O2115   2.026       .  S
Zn2108     O2119   1.998   1_556  S
Zn2109     O2114   2.043       .  S
Zn2109     O2120   2.020   1_556  S
Zn2110     O2122   2.045       .  S
O2112      C2124   1.270       .  A
O2113      C2125   1.272       .  A
O2114      C2126   1.277       .  A
O2115      C2124   1.273       .  A
O2116      C2126   1.271       .  A
O2117      C2125   1.276       .  A
O2118      C2127   1.276       .  A
O2119      C2128   1.272       .  A
O2120      C2127   1.276       .  A
O2121      C2128   1.275       .  A
O2122      C2129   1.277       .  A
O2123      C2129   1.270       .  A
C2124      C2452   1.482       .  S
C2125      C2201   1.481       .  S
C2126      C2465   1.481       .  S
C2127      C2177   1.485       .  S
C2128      C2153   1.480       .  S
C2129      C2489   1.477       .  S
Zn2130     O2135   2.021       .  S
Zn2131     O2134   1.938       .  S
Zn2131     O2136   2.000       .  S
Zn2132     O2134   1.953       .  S
Zn2132     O2137   2.006       .  S
Zn2132     O2140   2.030       .  S
Zn2133     O2144   2.031       .  S
Zn2133     O2145   2.019       .  S
O2135      C2147   1.274       .  A
O2136      C2148   1.272       .  A
O2137      C2149   1.273       .  A
O2138      C2147   1.271       .  A
O2139      C2149   1.274       .  A
O2140      C2148   1.274       .  A
O2141      C2150   1.275       .  A
O2142      C2151   1.271       .  A
O2143      C2150   1.274       .  A
O2144      C2151   1.275       .  A
O2145      C2152   1.275       .  A
O2146      C2152   1.274       .  A
C2147      C2345   1.478       .  S
C2148      C2297   1.480       .  S
C2149      C2585   1.476       .  S
C2150      C2644   1.481       .  S
C2151      C2332   1.480       .  S
C2152      C2609   1.481       .  S
C2153      C2154   1.405       .  A
C2153      C2158   1.406       .  A
C2154      C2155   1.394       .  A
C2154      H2167   1.083       .  S
C2155      C2156   1.402       .  A
C2155      H2168   1.084       .  S
C2156      C2159   1.485       .  S
C2156      C2157   1.409       .  A
C2157      C2158   1.400       .  A
C2157      H2169   1.081       .  S
C2158      H2170   1.083       .  S
C2159      C2160   1.347       .  D
C2159      H2171   1.085       .  S
C2160      C2161   1.486       .  S
C2160      H2172   1.084       .  S
C2161      C2162   1.404       .  A
C2161      C2166   1.407       .  A
C2162      C2163   1.399       .  A
C2162      H2173   1.083       .  S
C2163      C2164   1.406       .  A
C2163      H2174   1.082       .  S
C2164      C2165   1.402       .  A
C2165      C2166   1.394       .  A
C2165      H2175   1.079       .  S
C2166      H2176   1.081       .  S
C2177      C2178   1.405       .  A
C2177      C2182   1.407       .  A
C2178      C2179   1.396       .  A
C2178      H2191   1.083       .  S
C2179      C2180   1.404       .  A
C2179      H2192   1.083       .  S
C2180      C2183   1.491       .  S
C2180      C2181   1.410       .  A
C2181      C2182   1.402       .  A
C2181      H2193   1.079       .  S
C2182      H2194   1.083       .  S
C2183      C2184   1.349       .  D
C2183      H2195   1.085       .  S
C2184      C2185   1.488       .  S
C2184      H2196   1.083       .  S
C2185      C2186   1.405       .  A
C2185      C2190   1.409       .  A
C2186      C2187   1.400       .  A
C2186      H2197   1.083       .  S
C2187      C2188   1.402       .  A
C2187      H2198   1.083       .  S
C2188      C2189   1.398       .  A
C2189      C2190   1.395       .  A
C2189      H2199   1.080       .  S
C2190      H2200   1.081       .  S
C2201      C2202   1.406       .  A
C2201      C2206   1.406       .  A
C2202      C2203   1.392       .  A
C2202      H2215   1.083       .  S
C2203      C2204   1.400       .  A
C2203      H2216   1.084       .  S
C2204      C2207   1.483       .  S
C2204      C2205   1.409       .  A
C2205      C2206   1.402       .  A
C2205      H2217   1.081       .  S
C2206      H2218   1.083       .  S
C2207      C2208   1.345       .  D
C2207      H2219   1.085       .  S
C2208      C2209   1.486       .  S
C2208      H2220   1.085       .  S
C2209      C2210   1.404       .  A
C2209      C2214   1.409       .  A
C2210      C2211   1.398       .  A
C2210      H2221   1.083       .  S
C2211      C2212   1.402       .  A
C2211      H2222   1.083       .  S
C2212      C2213   1.401       .  A
C2213      C2214   1.394       .  A
C2213      H2223   1.084       .  S
C2214      H2224   1.081       .  S
C2225      C2226   1.400       .  A
C2225      C2230   1.405       .  A
C2226      C2227   1.399       .  A
C2226      H2239   1.079       .  S
C2227      C2228   1.405       .  A
C2227      H2240   1.083       .  S
C2228      C2231   1.488       .  S
C2228      C2229   1.408       .  A
C2229      C2230   1.399       .  A
C2229      H2241   1.081       .  S
C2231      C2232   1.350       .  D
C2231      H2243   1.084       .  S
C2232      C2233   1.491       .  S
C2232      H2244   1.085       .  S
C2233      C2234   1.406       .  A
C2233      C2238   1.408       .  A
C2234      C2235   1.401       .  A
C2234      H2245   1.083       .  S
C2235      C2236   1.402       .  A
C2235      H2246   1.083       .  S
C2236      C2237   1.404       .  A
C2237      C2238   1.397       .  A
C2237      H2247   1.083       .  S
C2238      H2248   1.081       .  S
C2249      C2250   1.404       .  A
C2249      C2254   1.408       .  A
C2250      C2251   1.400       .  A
C2250      H2263   1.078       .  S
C2251      C2252   1.402       .  A
C2251      H2264   1.083       .  S
C2252      C2255   1.482       .  S
C2252      C2253   1.403       .  A
C2253      C2254   1.399       .  A
C2253      H2265   1.083       .  S
C2254      H2266   1.083       .  S
C2255      C2256   1.347       .  D
C2255      H2267   1.087       .  S
C2256      C2257   1.485       .  S
C2256      H2268   1.087       .  S
C2257      C2258   1.405       .  A
C2257      C2262   1.404       .  A
C2258      C2259   1.403       .  A
C2258      H2269   1.083       .  S
C2259      C2260   1.403       .  A
C2259      H2270   1.082       .  S
C2260      C2261   1.407       .  A
C2261      C2262   1.397       .  A
C2261      H2271   1.083       .  S
C2262      H2272   1.083       .  S
C2273      C2274   1.404       .  A
C2273      C2278   1.401       .  A
C2274      C2275   1.397       .  A
C2274      H2287   1.083       .  S
C2275      C2276   1.403       .  A
C2275      H2288   1.083       .  S
C2276      C2279   1.489       .  S
C2276      C2277   1.411       .  A
C2277      C2278   1.403       .  A
C2277      H2289   1.081       .  S
C2278      H2290   1.082       .  S
C2279      C2280   1.347       .  D
C2279      H2291   1.086       .  S
C2280      C2281   1.487       .  S
C2280      H2292   1.085       .  S
C2281      C2282   1.403       .  A
C2281      C2286   1.410       .  A
C2282      C2283   1.396       .  A
C2282      H2293   1.083       .  S
C2283      C2284   1.404       .  A
C2284      C2285   1.402       .  A
C2285      C2286   1.402       .  A
C2285      H2295   1.083       .  S
C2286      H2296   1.082       .  S
C2297      C2298   1.406       .  A
C2297      C2302   1.406       .  A
C2298      C2299   1.401       .  A
C2298      H2311   1.083       .  S
C2299      C2300   1.403       .  A
C2299      H2312   1.083       .  S
C2300      C2303   1.480       .  S
C2300      C2301   1.404       .  A
C2301      C2302   1.395       .  A
C2301      H2313   1.083       .  S
C2302      H2314   1.083       .  S
C2303      C2304   1.344       .  D
C2303      H2315   1.087       .  S
C2304      C2305   1.477       .  S
C2304      H2316   1.087       .  S
C2305      C2306   1.402       .  A
C2305      C2310   1.407       .  A
C2306      C2307   1.396       .  A
C2306      H2317   1.083       .  S
C2307      C2308   1.400       .  A
C2307      H2318   1.084       .  S
C2308      C2309   1.400       .  A
C2309      C2310   1.398       .  A
C2309      H2319   1.083       .  S
C2310      H2320   1.083       .  S
C2321      C2322   1.402       .  A
C2321      C2326   1.400       .  A
C2322      C2323   1.397       .  A
C2322      H2335   1.083       .  S
C2323      C2324   1.405       .  A
C2323      H2336   1.083       .  S
C2324      C2327   1.484       .  S
C2324      C2325   1.408       .  A
C2325      C2326   1.396       .  A
C2325      H2337   1.081       .  S
C2326      H2338   1.084       .  S
C2327      C2328   1.348       .  D
C2327      H2339   1.085       .  S
C2328      C2329   1.485       .  S
C2328      H2340   1.085       .  S
C2329      C2330   1.405       .  A
C2329      C2334   1.406       .  A
C2330      C2331   1.400       .  A
C2330      H2341   1.083       .  S
C2331      C2332   1.405       .  A
C2331      H2342   1.083       .  S
C2332      C2333   1.406       .  A
C2333      C2334   1.393       .  A
C2333      H2343   1.083       .  S
C2334      H2344   1.081       .  S
C2345      C2346   1.407       .  A
C2345      C2350   1.404       .  A
C2346      C2347   1.396       .  A
C2346      H2359   1.083       .  S
C2347      C2348   1.401       .  A
C2347      H2360   1.083       .  S
C2348      C2351   1.483       .  S
C2348      C2349   1.409       .  A
C2349      C2350   1.397       .  A
C2349      H2361   1.082       .  S
C2350      H2362   1.083       .  S
C2351      C2352   1.344       .  D
C2351      H2363   1.084       .  S
C2352      C2353   1.483       .  S
C2352      H2364   1.086       .  S
C2353      C2354   1.403       .  A
C2353      C2358   1.411       .  A
C2354      C2355   1.392       .  A
C2354      H2365   1.083       .  S
C2355      C2356   1.400       .  A
C2355      H2366   1.084       .  S
C2356      C2357   1.402       .  A
C2357      C2358   1.399       .  A
C2357      H2367   1.083       .  S
C2358      H2368   1.080       .  S
C2369      C2370   1.401       .  A
C2369      C2374   1.403       .  A
C2370      C2371   1.400       .  A
C2370      H2383   1.083       .  S
C2371      C2372   1.406       .  A
C2371      H2384   1.083       .  S
C2372      C2375   1.486       .  S
C2372      C2373   1.407       .  A
C2373      C2374   1.397       .  A
C2373      H2385   1.082       .  S
C2374      H2386   1.083       .  S
C2375      C2376   1.347       .  D
C2375      H2387   1.087       .  S
C2376      C2377   1.483       .  S
C2376      H2388   1.086       .  S
C2377      C2378   1.403       .  A
C2377      C2382   1.408       .  A
C2378      C2379   1.397       .  A
C2378      H2389   1.083       .  S
C2379      C2380   1.403       .  A
C2379      H2390   1.083       .  S
C2380      C2381   1.401       .  A
C2381      C2382   1.400       .  A
C2382      H2392   1.083       .  S
C2393      C2394   1.402       .  A
C2393      C2398   1.404       .  A
C2394      C2395   1.399       .  A
C2394      H2407   1.083   1_655  S
C2395      C2396   1.405       .  A
C2395      H2408   1.083       .  S
C2396      C2399   1.488       .  S
C2396      C2397   1.408       .  A
C2397      C2398   1.398       .  A
C2397      H2409   1.081       .  S
C2398      H2410   1.083       .  S
C2399      C2400   1.349       .  D
C2399      H2411   1.085       .  S
C2400      C2401   1.486       .  S
C2400      H2412   1.085       .  S
C2401      C2402   1.405       .  A
C2401      C2406   1.407       .  A
C2402      C2403   1.399       .  A
C2402      H2413   1.083       .  S
C2403      C2404   1.401       .  A
C2403      H2414   1.083       .  S
C2404      C2405   1.404       .  A
C2405      C2406   1.397       .  A
C2405      H2415   1.083       .  S
C2406      H2416   1.082       .  S
C2417      C2418   1.401       .  A
C2417      C2422   1.403       .  A
C2418      C2419   1.401       .  A
C2419      C2420   1.407       .  A
C2419      H2432   1.083       .  S
C2420      C2423   1.491       .  S
C2420      C2421   1.408       .  A
C2421      C2422   1.396       .  A
C2421      H2433   1.080       .  S
C2422      H2434   1.083       .  S
C2423      C2424   1.351       .  D
C2423      H2435   1.085       .  S
C2424      C2425   1.487       .  S
C2424      H2436   1.084       .  S
C2425      C2426   1.406       .  A
C2425      C2430   1.407       .  A
C2426      C2427   1.400       .  A
C2426      H2437   1.083       .  S
C2427      C2428   1.401       .  A
C2427      H2438   1.083       .  S
C2428      C2429   1.404       .  A
C2429      C2430   1.398       .  A
C2429      H2439   1.082       .  S
C2430      H2440   1.081       .  S
C2441      C2442   1.404       .  A
C2441      C2446   1.402       .  A
C2442      C2443   1.399       .  A
C2442      H2455   1.083       .  S
C2443      C2444   1.404       .  A
C2443      H2456   1.083       .  S
C2444      C2447   1.484       .  S
C2444      C2445   1.406       .  A
C2445      C2446   1.396       .  A
C2445      H2457   1.082       .  S
C2446      H2458   1.081       .  S
C2447      C2448   1.347       .  D
C2447      H2459   1.086       .  S
C2448      C2449   1.484       .  S
C2448      H2460   1.086       .  S
C2449      C2450   1.404       .  A
C2449      C2454   1.406       .  A
C2450      C2451   1.399       .  A
C2450      H2461   1.083       .  S
C2451      C2452   1.405       .  A
C2451      H2462   1.083       .  S
C2452      C2453   1.407       .  A
C2453      C2454   1.397       .  A
C2453      H2463   1.083       .  S
C2454      H2464   1.082       .  S
C2465      C2466   1.406       .  A
C2465      C2470   1.405       .  A
C2466      C2467   1.393       .  A
C2466      H2479   1.083       .  S
C2467      C2468   1.400       .  A
C2467      H2480   1.084       .  S
C2468      C2471   1.485       .  S
C2468      C2469   1.410       .  A
C2469      C2470   1.401       .  A
C2469      H2481   1.081       .  S
C2470      H2482   1.083       .  S
C2471      C2472   1.345       .  D
C2471      H2483   1.084       .  S
C2472      C2473   1.487       .  S
C2472      H2484   1.085       .  S
C2473      C2474   1.403       .  A
C2473      C2478   1.411       .  A
C2474      C2475   1.395       .  A
C2474      H2485   1.083       .  S
C2475      C2476   1.402       .  A
C2475      H2486   1.083       .  S
C2476      C2477   1.402       .  A
C2477      C2478   1.398       .  A
C2477      H2487   1.083       .  S
C2478      H2488   1.080       .  S
C2489      C2490   1.406       .  A
C2489      C2494   1.403       .  A
C2490      C2491   1.394       .  A
C2490      H2503   1.083       .  S
C2491      C2492   1.400       .  A
C2491      H2504   1.084       .  S
C2492      C2495   1.483       .  S
C2492      C2493   1.409       .  A
C2493      C2494   1.400       .  A
C2493      H2505   1.082       .  S
C2494      H2506   1.083       .  S
C2495      C2496   1.345       .  D
C2495      H2507   1.085       .  S
C2496      C2497   1.485       .  S
C2496      H2508   1.086       .  S
C2497      C2498   1.404       .  A
C2497      C2502   1.410       .  A
C2498      C2499   1.395       .  A
C2498      H2509   1.083       .  S
C2499      C2500   1.399       .  A
C2499      H2510   1.082       .  S
C2500      C2501   1.400       .  A
C2501      C2502   1.399       .  A
C2501      H2511   1.083       .  S
C2502      H2512   1.081       .  S
C2513      C2514   1.401       .  A
C2513      C2518   1.404       .  A
C2514      C2515   1.400       .  A
C2514      H2527   1.078       .  S
C2515      C2516   1.405       .  A
C2515      H2528   1.083       .  S
C2516      C2519   1.493       .  S
C2516      C2517   1.410       .  A
C2517      C2518   1.404       .  A
C2517      H2529   1.081       .  S
C2518      H2530   1.083   1_565  S
C2519      C2520   1.349       .  D
C2519      H2531   1.086       .  S
C2520      C2521   1.492       .  S
C2520      H2532   1.085       .  S
C2521      C2522   1.404       .  A
C2521      C2526   1.410       .  A
C2522      C2523   1.400       .  A
C2522      H2533   1.083       .  S
C2523      C2524   1.404       .  A
C2523      H2534   1.083       .  S
C2524      C2525   1.402       .  A
C2525      C2526   1.403       .  A
C2525      H2535   1.081       .  S
C2526      H2536   1.082       .  S
C2537      C2538   1.402       .  A
C2537      C2542   1.404       .  A
C2538      C2539   1.402       .  A
C2538      H2551   1.083       .  S
C2539      C2540   1.406       .  A
C2539      H2552   1.083       .  S
C2540      C2543   1.491       .  S
C2540      C2541   1.408       .  A
C2541      C2542   1.398       .  A
C2541      H2553   1.081       .  S
C2542      H2554   1.083       .  S
C2543      C2544   1.351       .  D
C2543      H2555   1.084       .  S
C2544      C2545   1.491       .  S
C2544      H2556   1.085       .  S
C2545      C2546   1.404       .  A
C2545      C2550   1.409       .  A
C2546      C2547   1.399       .  A
C2546      H2557   1.084       .  S
C2547      C2548   1.402       .  A
C2548      C2549   1.406       .  A
C2549      C2550   1.401       .  A
C2550      H2560   1.081       .  S
C2561      C2562   1.401       .  A
C2561      C2566   1.405       .  A
C2562      C2563   1.401       .  A
C2562      H2575   1.081       .  S
C2563      C2564   1.406       .  A
C2563      H2576   1.083       .  S
C2564      C2567   1.490       .  S
C2564      C2565   1.407       .  A
C2565      C2566   1.397       .  A
C2565      H2577   1.081       .  S
C2566      H2578   1.083       .  S
C2567      C2568   1.351       .  D
C2567      H2579   1.084       .  S
C2568      C2569   1.491       .  S
C2568      H2580   1.085       .  S
C2569      C2570   1.407       .  A
C2569      C2574   1.408       .  A
C2570      C2571   1.401       .  A
C2570      H2581   1.083       .  S
C2571      C2572   1.401       .  A
C2572      C2573   1.404       .  A
C2573      C2574   1.397       .  A
C2573      H2583   1.083       .  S
C2574      H2584   1.081       .  S
C2585      C2586   1.406       .  A
C2585      C2590   1.405       .  A
C2586      C2587   1.398       .  A
C2586      H2599   1.083       .  S
C2587      C2588   1.401       .  A
C2587      H2600   1.083       .  S
C2588      C2591   1.474       .  S
C2588      C2589   1.403       .  A
C2589      C2590   1.395       .  A
C2589      H2601   1.083       .  S
C2590      H2602   1.083       .  S
C2591      C2592   1.342       .  D
C2591      H2603   1.087       .  S
C2592      C2593   1.475       .  S
C2592      H2604   1.087       .  S
C2593      C2594   1.400       .  A
C2593      C2598   1.401       .  A
C2594      C2595   1.398       .  A
C2594      H2605   1.083       .  S
C2595      C2596   1.408       .  A
C2595      H2606   1.080       .  S
C2596      C2597   1.407       .  A
C2597      C2598   1.395       .  A
C2597      H2607   1.079       .  S
C2598      H2608   1.083       .  S
C2609      C2610   1.406       .  A
C2609      C2614   1.405       .  A
C2610      C2611   1.398       .  A
C2610      H2623   1.083       .  S
C2611      C2612   1.403       .  A
C2611      H2624   1.083       .  S
C2612      C2615   1.486       .  S
C2612      C2613   1.408       .  A
C2613      C2614   1.397       .  A
C2613      H2625   1.081       .  S
C2614      H2626   1.083       .  S
C2615      C2616   1.346       .  D
C2615      H2627   1.084       .  S
C2616      C2617   1.486       .  S
C2616      H2628   1.085       .  S
C2617      C2618   1.403       .  A
C2617      C2622   1.411       .  A
C2618      C2619   1.393       .  A
C2618      H2629   1.083       .  S
C2619      C2620   1.398       .  A
C2619      H2630   1.081       .  S
C2620      C2621   1.401       .  A
C2621      C2622   1.401       .  A
C2621      H2631   1.083       .  S
C2622      H2632   1.080       .  S
C2633      C2634   1.403       .  A
C2633      C2638   1.400       .  A
C2634      C2635   1.398       .  A
C2634      H2647   1.083       .  S
C2635      C2636   1.405       .  A
C2635      H2648   1.083       .  S
C2636      C2639   1.487       .  S
C2636      C2637   1.409       .  A
C2637      C2638   1.395       .  A
C2637      H2649   1.080       .  S
C2638      H2650   1.084       .  S
C2639      C2640   1.347       .  D
C2639      H2651   1.085       .  S
C2640      C2641   1.485       .  S
C2640      H2652   1.084       .  S
C2641      C2642   1.402       .  A
C2641      C2646   1.409       .  A
C2642      C2643   1.395       .  A
C2642      H2653   1.083       .  S
C2643      C2644   1.405       .  A
C2644      C2645   1.406       .  A
C2645      C2646   1.400       .  A
C2645      H2655   1.083       .  S
C2646      H2656   1.081       .  S
C2657      C2658   1.403       .  A
C2657      C2662   1.401       .  A
C2658      C2659   1.398       .  A
C2658      H2671   1.083       .  S
C2659      C2660   1.404       .  A
C2659      H2672   1.083       .  S
C2660      C2663   1.490       .  S
C2660      C2661   1.410       .  A
C2661      C2662   1.401       .  A
C2661      H2673   1.082       .  S
C2662      H2674   1.081       .  S
C2663      C2664   1.349       .  D
C2663      H2675   1.085       .  S
C2664      C2665   1.491       .  S
C2664      H2676   1.085       .  S
C2665      C2666   1.404       .  A
C2665      C2670   1.410       .  A
C2666      C2667   1.398       .  A
C2666      H2677   1.083       .  S
C2667      C2668   1.404       .  A
C2668      C2669   1.402       .  A
C2669      C2670   1.402       .  A
C2669      H2679   1.081       .  S
C2670      H2680   1.081       .  S
C2681      C2682   1.404       .  A
C2681      C2686   1.407       .  A
C2682      C2683   1.401       .  A
C2682      H2695   1.083   1_565  S
C2683      C2684   1.403       .  A
C2683      H2696   1.083       .  S
C2684      C2687   1.482       .  S
C2684      C2685   1.403       .  A
C2685      C2686   1.397       .  A
C2685      H2697   1.083       .  S
C2686      H2698   1.082       .  S
C2687      C2688   1.346       .  D
C2687      H2699   1.087       .  S
C2688      C2689   1.482       .  S
C2688      H2700   1.087       .  S
C2689      C2690   1.403       .  A
C2689      C2694   1.403       .  A
C2690      C2691   1.401       .  A
C2690      H2701   1.083       .  S
C2691      C2692   1.404       .  A
C2691      H2702   1.083       .  S
C2692      C2693   1.408       .  A
C2693      C2694   1.398       .  A
C2693      H2703   1.080       .  S
C2694      H2704   1.083       .  S
C2705      C2706   1.402       .  A
C2705      C2710   1.405       .  A
C2706      C2707   1.401       .  A
C2706      H2719   1.080   1_565  S
C2707      C2708   1.406       .  A
C2707      H2720   1.083       .  S
C2708      C2711   1.492       .  S
C2708      C2709   1.408       .  A
C2709      C2710   1.399       .  A
C2709      H2721   1.081       .  S
C2710      H2722   1.083       .  S
C2711      C2712   1.351       .  D
C2711      H2723   1.085       .  S
C2712      C2713   1.490       .  S
C2712      H2724   1.084       .  S
C2713      C2714   1.406       .  A
C2713      C2718   1.408       .  A
C2714      C2715   1.400       .  A
C2714      H2725   1.083       .  S
C2715      C2716   1.401       .  A
C2715      H2726   1.081       .  S
C2716      C2717   1.406       .  A
C2717      C2718   1.399       .  A
C2717      H2727   1.083       .  S
C2718      H2728   1.081       .  S
