geometry optimzed in LAMMPS
_audit_creation_date              2020-11-30 
_audit_creation_method            'lammps2cif' 
_symmetry_space_group_name_H-M    'P1' 
_symmetry_Int_Tables_number       1 
_symmetry_cell_setting            triclinic 
loop_ 
_symmetry_equiv_pos_as_xyz 
  x,y,z 
_cell_length_a                    31.329467331934463 
_cell_length_b                    31.27375831653151 
_cell_length_c                    47.002434999528816 
_cell_angle_alpha                 89.7558305432631 
_cell_angle_beta                  89.9572473399223 
_cell_angle_gamma                 121.63972577872347 
loop_ 
_atom_site_label 
_atom_site_type_symbol 
_atom_site_fract_x 
_atom_site_fract_y 
_atom_site_fract_z 
_atom_site_charge 
C1          C  0.59762184  0.59925022  0.04134537     0.04520
C2          C  0.63031680  0.63154775  0.06231333    -0.11630
C3          C  0.62210094  0.61696725  0.09121234     0.02020
C4          C  0.57990730  0.57014799  0.09898019    -0.10160
C5          C  0.54700555  0.53798678  0.07804432     0.04510
C6          C  0.55637388  0.55271114  0.04950872    -0.09580
H7          H  0.66220268  0.66773669  0.05606560     0.10110
H8          H  0.57306783  0.55829424  0.12105205     0.07640
H9          H  0.53131529  0.52723377  0.03336429     0.07480
C10         C  0.30234851  0.29005269  0.04277383     0.04520
C11         C  0.34666759  0.33483559  0.04946662    -0.11630
C12         C  0.36077852  0.34842007  0.07785520     0.02020
C13         C  0.32883481  0.31729379  0.09976687    -0.10160
C14         C  0.28341771  0.27268844  0.09317223     0.04510
C15         C  0.27058534  0.25936866  0.06451603    -0.09580
H16         H  0.37129181  0.35836269  0.03242066     0.10110
H17         H  0.33980293  0.32732965  0.12172740     0.07640
H18         H  0.23660809  0.22446164  0.05897612     0.07480
C19         C  0.30970073  0.27705498  0.42269774     0.04520
C20         C  0.35547855  0.31933136  0.41461249    -0.11630
C21         C  0.36722006  0.33157636  0.38585894     0.02020
C22         C  0.33310028  0.30081807  0.36494736    -0.10160
C23         C  0.28706076  0.25791444  0.37287796     0.04510
C24         C  0.27569073  0.24628258  0.40188885    -0.09580
H25         H  0.38132679  0.34383077  0.43079662     0.10110
H26         H  0.34202282  0.31095922  0.34273271     0.07640
H27         H  0.24014269  0.21380495  0.40843655     0.07480
C28         C  0.59880224  0.58378507  0.42029203     0.04520
C29         C  0.55909255  0.53612408  0.41245115    -0.11630
C30         C  0.55096739  0.52132036  0.38388260     0.02020
C31         C  0.58419426  0.55372799  0.36292023    -0.10160
C32         C  0.62502570  0.60127478  0.37050768     0.04510
C33         C  0.63170774  0.61612333  0.39921529    -0.09580
H34         H  0.53320946  0.51094865  0.42858791     0.10110
H35         H  0.57753682  0.54232861  0.34084473     0.07640
H36         H  0.66198862  0.65325762  0.40520267     0.07480
C37         C  0.61797513  0.93447051  0.09433986     0.04520
C38         C  0.57571943  0.93624335  0.10265537    -0.11630
C39         C  0.54246306  0.93446244  0.08210765     0.02020
C40         C  0.55114954  0.93071715  0.05334189    -0.10160
C41         C  0.59336869  0.92986872  0.04464932     0.04510
C42         C  0.62656216  0.93129784  0.06516123    -0.09580
H43         H  0.56899568  0.93975320  0.12488688     0.10110
H44         H  0.52570357  0.93016009  0.03750064     0.07640
H45         H  0.65942192  0.93100076  0.05828959     0.07480
C46         C  0.29775347  0.95608699  0.09133038     0.04520
C47         C  0.34081172  0.95619766  0.10002229    -0.11630
C48         C  0.37459739  0.95816592  0.07975258     0.02020
C49         C  0.36568629  0.96038493  0.05079600    -0.10160
C50         C  0.32285311  0.95979129  0.04180863     0.04510
C51         C  0.28909240  0.95803405  0.06205058    -0.09580
H52         H  0.34749161  0.95340795  0.12236865     0.10110
H53         H  0.39099055  0.96014720  0.03512208     0.07640
H54         H  0.25543368  0.95645655  0.05489594     0.07480
C55         C  0.29071214  0.93867872  0.37047249     0.04520
C56         C  0.28325157  0.94415540  0.39952213    -0.11630
C57         C  0.31432434  0.94222750  0.42026882     0.02020
C58         C  0.35300539  0.93510122  0.41198927    -0.10160
C59         C  0.36091453  0.92964560  0.38329191     0.04510
C60         C  0.32999975  0.93170785  0.36250305    -0.09580
H61         H  0.25299208  0.94912978  0.40611358     0.10110
H62         H  0.37690873  0.93335999  0.42804171     0.07640
H63         H  0.33614944  0.92709972  0.34033846     0.07480
C64         C  0.61227142  0.91983798  0.37321881     0.04520
C65         C  0.62286973  0.92149972  0.40248713    -0.11630
C66         C  0.58910626  0.91949610  0.42280310     0.02020
C67         C  0.54441466  0.91508999  0.41391350    -0.10160
C68         C  0.53335838  0.91350033  0.38497877     0.04510
C69         C  0.56723423  0.91578670  0.36461726    -0.09580
H70         H  0.65771772  0.92553776  0.40953179     0.10110
H71         H  0.51871872  0.91443622  0.42964429     0.07640
H72         H  0.55875274  0.91517867  0.34223249     0.07480
O73         O  0.68814956  0.67248098  0.20028833    -0.56420
C74         C  0.65818456  0.65016804  0.11298554     0.76200
O75         O  0.76321498  0.80453783  0.14114840    -0.57580
C76         C  0.72262595  0.70652161  0.21543002     0.76180
C77         C  0.81692905  0.70937708  0.14730610     0.78570
Cd78       Cd  0.72937587  0.71593367  0.15467099     1.37460
O79         O  0.65131010  0.63958164  0.13928686    -0.56420
O80         O  0.77604440  0.67294289  0.15671608    -0.55230
C81         C  0.72538183  0.80524108  0.14999211     0.78530
O82         O  0.81689426  0.74820187  0.13957594    -0.57600
O83         O  0.69796978  0.69072330  0.10621469    -0.56050
O84         O  0.75842910  0.74342025  0.20248363    -0.56040
O85         O  0.68912768  0.76452395  0.15974251    -0.55220
O86         O  0.95088108  0.62918865  0.13622192    -0.56420
C87         C  0.95400934  0.69695741  0.21282776     0.76200
O88         O  0.01097032  0.79387877  0.13576026    -0.57580
C89         C  0.94435310  0.63434395  0.11014096     0.76180
C90         C  0.86263867  0.70741385  0.14694313     0.78570
Cd91       Cd  0.95385012  0.70656823  0.15179454     1.37470
O92         O  0.94901619  0.66155519  0.19732457    -0.56420
O93         O  0.86292143  0.66978513  0.15665657    -0.55230
C94         C  0.05077831  0.79710457  0.14437933     0.78530
O95         O  0.90408645  0.74399315  0.13821871    -0.57600
O96         O  0.95876702  0.73489849  0.20014919    -0.56050
O97         O  0.94335085  0.67305157  0.10355560    -0.56040
O98         O  0.04659287  0.75742104  0.15434547    -0.55220
O99         O  0.68210802  0.93667179  0.20358844    -0.56420
C100        C  0.65380558  0.93732599  0.11585513     0.76200
O101        O  0.81131837  0.00074334  0.14105940    -0.57580
C102        C  0.71730646  0.93928188  0.21830805     0.76180
C103        C  0.72421986  0.85139537  0.15037370     0.78570
Cd104      Cd  0.72480681  0.94286842  0.15708296     1.37470
O105        O  0.64782618  0.94073501  0.14223792    -0.56420
O106        O  0.68687761  0.85174803  0.16031479    -0.55230
C107        C  0.81415889  0.04021055  0.15005535     0.78530
O108        O  0.76110356  0.89302191  0.14202288    -0.57600
O109        O  0.69239613  0.93665147  0.10879242    -0.56050
O110        O  0.75439141  0.94396048  0.20481148    -0.56040
O111        O  0.77467273  0.03539720  0.16058016    -0.55220
O112        O  0.96232181  0.21858118  0.20571114    -0.56420
C113        C  0.96949220  0.25005605  0.11675754     0.76200
O114        O  0.00798534  0.14099432  0.14458728    -0.57580
C115        C  0.95662767  0.18153194  0.22013665     0.76180
C116        C  0.86196776  0.08833176  0.15030489     0.78570
Cd117      Cd  0.95842547  0.17758350  0.15894906     1.37470
O118        O  0.96097943  0.25483231  0.14256785    -0.56420
O119        O  0.86582536  0.12757279  0.16054465    -0.55230
C120        C  0.04927677  0.17711684  0.15358122     0.78530
O121        O  0.90202476  0.09164567  0.14205409    -0.57600
O122        O  0.97202602  0.21204206  0.11093454    -0.56050
O123        O  0.95196786  0.14478923  0.20634234    -0.56040
O124        O  0.04892344  0.21412466  0.16407869    -0.55220
O125        O  0.22245182  0.20792865  0.20406731    -0.56420
C126        C  0.24989913  0.23858269  0.11573147     0.76200
O127        O  0.14954949  0.08195169  0.14214404    -0.57580
C128        C  0.18780363  0.17179170  0.21833156     0.76180
C129        C  0.09496662  0.17533677  0.15312068     0.78570
Cd130      Cd  0.18259714  0.16906164  0.15773627     1.37460
O131        O  0.26019483  0.24690173  0.14196828    -0.56420
O132        O  0.13565988  0.21099409  0.16300947    -0.55230
C133        C  0.18772075  0.08095558  0.14992792     0.78530
O134        O  0.09520078  0.13744092  0.14393316    -0.57600
O135        O  0.20907981  0.19885454  0.10955674    -0.56050
O136        O  0.15272566  0.13608846  0.20455176    -0.56040
O137        O  0.22417866  0.12120917  0.15976252    -0.55220
O138        O  0.23001881  0.94502073  0.19969444    -0.56420
C139        C  0.26078740  0.95155807  0.11260684     0.76200
O140        O  0.10167109  0.88553402  0.13665289    -0.57580
C141        C  0.19399230  0.93963597  0.21483324     0.76180
C142        C  0.18885255  0.03477200  0.14917004     0.78570
Cd143      Cd  0.18789078  0.94251878  0.15367000     1.37470
O144        O  0.26616479  0.94745257  0.13899116    -0.56420
O145        O  0.22599911  0.03358925  0.15861251    -0.55230
C146        C  0.09858367  0.84542744  0.14487870     0.78530
O147        O  0.15198485  0.99376379  0.14039299    -0.57600
O148        O  0.22172711  0.95118375  0.10536428    -0.56050
O149        O  0.15682555  0.93550837  0.20175916    -0.56040
O150        O  0.13779910  0.84962318  0.15534945    -0.55220
O151        O  0.65301404  0.62706805  0.32229072    -0.56420
C152        C  0.72254889  0.70455528  0.24652505     0.76200
O153        O  0.76113468  0.79391587  0.32304977    -0.57580
C154        C  0.65996579  0.63633058  0.34867684     0.76180
C155        C  0.81717171  0.70107527  0.31215922     0.78570
Cd156      Cd  0.72890570  0.70684453  0.30732206     1.37460
O157        O  0.68769629  0.66894944  0.26096163    -0.56420
O158        O  0.77646116  0.66520602  0.30243797    -0.55230
C159        C  0.72292234  0.79460615  0.31496298     0.78530
O160        O  0.81669568  0.73891573  0.32121736    -0.57600
O161        O  0.75859675  0.73950659  0.26018608    -0.56050
O162        O  0.69857988  0.67764082  0.35553804    -0.56040
O163        O  0.68689713  0.75426718  0.30493413    -0.55220
O164        O  0.95643874  0.62489541  0.32195717    -0.56420
C165        C  0.95429825  0.69561658  0.24401668     0.76200
O166        O  0.90461556  0.73631543  0.31993318    -0.57580
C167        C  0.94704365  0.62961989  0.34760129     0.76180
C168        C  0.05048554  0.79005452  0.31352514     0.78570
Cd169      Cd  0.95474256  0.70029033  0.30519004     1.37470
O170        O  0.94869447  0.65856748  0.25840987    -0.56420
O171        O  0.04700832  0.75114939  0.30304014    -0.55230
C172        C  0.86315227  0.69965919  0.31151729     0.78530
O173        O  0.01031068  0.78631070  0.32192708    -0.57600
O174        O  0.96014570  0.73282056  0.25783803    -0.56050
O175        O  0.94269290  0.66671928  0.35293917    -0.56040
O176        O  0.86361416  0.66250988  0.30130873    -0.55220
O177        O  0.68082761  0.93256214  0.26453503    -0.56420
C178        C  0.64886130  0.92391527  0.35181297     0.76200
O179        O  0.75778418  0.88173227  0.32438274    -0.57580
C180        C  0.71650741  0.93685487  0.24950035     0.76180
C181        C  0.81001595  0.02954469  0.31914190     0.78570
Cd182      Cd  0.72136705  0.93238096  0.31064816     1.37460
O183        O  0.64154124  0.92427083  0.32533366    -0.56420
O184        O  0.77060585  0.02501785  0.30876293    -0.55230
C185        C  0.72125564  0.84053389  0.31556845     0.78530
O186        O  0.80740227  0.98967788  0.32740007    -0.57600
O187        O  0.68950857  0.92755655  0.35904343    -0.56050
O188        O  0.75262778  0.93886594  0.26266306    -0.56040
O189        O  0.68398646  0.84130368  0.30592744    -0.55220
O190        O  0.96059839  0.21506730  0.26687018    -0.56420
C191        C  0.96218279  0.23927038  0.35492488     0.76200
O192        O  0.89747898  0.08156332  0.32812036    -0.57580
C193        C  0.95549166  0.17963595  0.25133273     0.76180
C194        C  0.04520613  0.16846067  0.31730250     0.78570
Cd195      Cd  0.95366031  0.16886883  0.31235318     1.37460
O196        O  0.95299072  0.24412301  0.32926785    -0.56420
O197        O  0.04495431  0.20638933  0.30806595    -0.55230
C198        C  0.85750261  0.07800152  0.31954820     0.78530
O199        O  0.00361977  0.13145341  0.32553686    -0.57600
O200        O  0.96520326  0.20139340  0.36058773    -0.56050
O201        O  0.94940056  0.14112598  0.26398205    -0.56040
O202        O  0.86121210  0.11747599  0.30959039    -0.55220
O203        O  0.25819062  0.23524629  0.32483758    -0.56420
C204        C  0.18686132  0.16997641  0.24937318     0.76200
O205        O  0.14607657  0.07186466  0.32342692    -0.57580
C206        C  0.25035566  0.22562853  0.35119269     0.76180
C207        C  0.09103702  0.16663520  0.31696806     0.78570
Cd208      Cd  0.17890807  0.16034528  0.30986570     1.37470
O209        O  0.22006967  0.20487856  0.26466284    -0.56420
O210        O  0.13203603  0.20328414  0.30781365    -0.55230
C211        C  0.18435482  0.07186434  0.31470103     0.78530
O212        O  0.09106510  0.12770834  0.32448924    -0.57600
O213        O  0.15154647  0.13230988  0.26210339    -0.56050
O214        O  0.20923703  0.18660099  0.35811599    -0.56040
O215        O  0.22029381  0.11285745  0.30505845    -0.55220
O216        O  0.26240143  0.93472823  0.32240194    -0.56420
C217        C  0.19390030  0.93823438  0.24604197     0.76200
O218        O  0.10058935  0.87748481  0.32309905    -0.57580
C219        C  0.25647297  0.93848715  0.34875340     0.76180
C220        C  0.18635835  0.02618203  0.31425956     0.78570
Cd221      Cd  0.18700765  0.93546653  0.30728359     1.37470
O222        O  0.23036773  0.94360153  0.26070141    -0.56420
O223        O  0.22408485  0.02650877  0.30432661    -0.55230
C224        C  0.09804902  0.83824171  0.31395213     0.78530
O225        O  0.14979356  0.98427822  0.32250615    -0.57600
O226        O  0.15611462  0.93166010  0.25961338    -0.56050
O227        O  0.21909065  0.94145254  0.35562489    -0.56040
O228        O  0.13766379  0.84329114  0.30349068    -0.55220
C229        C  0.97202203  0.27695188  0.37697447     0.04520
C230        C  0.96512286  0.31739533  0.37169231    -0.11630
C231        C  0.98313814  0.35770638  0.39114509     0.02020
C232        C  0.00891624  0.35602131  0.41529765    -0.10160
C233        C  0.00512267  0.31124767  0.42358082     0.04510
C234        C  0.98900447  0.27263247  0.40384748    -0.09580
H235        H  0.94470975  0.31614255  0.35292161     0.10110
H236        H  0.02641737  0.38728817  0.42988352     0.07640
H237        H  0.98822129  0.23875166  0.40988171     0.07480
C238        C  0.93931778  0.59329619  0.37029068     0.04520
C239        C  0.95028703  0.55532051  0.36623454    -0.11630
C240        C  0.93727403  0.51797551  0.38734871     0.02020
C241        C  0.91203666  0.51946581  0.41179570    -0.10160
C242        C  0.91043007  0.56208087  0.41822255     0.04510
C243        C  0.92169707  0.59770339  0.39696500    -0.09580
H244        H  0.97015461  0.55628166  0.34721931     0.10110
H245        H  0.89913371  0.49020822  0.42780876     0.07640
H246        H  0.91839884  0.62972189  0.40171827     0.07480
C247        C  0.97601518  0.28635117  0.09433090     0.04520
C248        C  0.96873812  0.32621064  0.10024273    -0.11630
C249        C  0.97268092  0.35878067  0.07835745     0.02020
C250        C  0.98481587  0.35208219  0.05072883    -0.10160
C251        C  0.99204544  0.31262668  0.04457265     0.04510
C252        C  0.98772547  0.27989418  0.06632381    -0.09580
H253        H  0.95852990  0.33104693  0.12148162     0.10110
H254        H  0.98644727  0.37637634  0.03367347     0.07640
H255        H  0.99214109  0.24869787  0.06115302     0.07480
C256        C  0.93816831  0.59745337  0.08838949     0.04520
C257        C  0.92925021  0.60436810  0.05987166    -0.11630
C258        C  0.92428485  0.57034640  0.03897480     0.02020
C259        C  0.92925883  0.52985369  0.04641548    -0.10160
C260        C  0.93720986  0.52159151  0.07474828     0.04510
C261        C  0.94122188  0.55539400  0.09577240    -0.09580
H262        H  0.92638013  0.63621707  0.05378050     0.10110
H263        H  0.92722007  0.50471893  0.02991393     0.07640
H264        H  0.94712031  0.54913206  0.11771523     0.07480
C265        C  0.95980288  0.39760119  0.08312833    -0.03950
C266        C  0.91388485  0.38952203  0.07284609    -0.01060
C267        C  0.90479935  0.42908781  0.07250354     0.03930
C268        C  0.94236845  0.47773938  0.08146919    -0.03950
C269        C  0.98694549  0.48478500  0.09370118    -0.01050
C270        C  0.99526992  0.44453990  0.09480752     0.03920
C271        C  0.87649791  0.34072726  0.06170468     0.38570
C272        C  0.02564812  0.53395887  0.10360936     0.38560
C273        C  0.04134113  0.45195587  0.10674386     0.36990
C274        C  0.85684956  0.41966581  0.06243712     0.36990
N275        N  0.07796241  0.45769783  0.11638479    -0.37830
N276        N  0.81845450  0.41162069  0.05435797    -0.37830
N277        N  0.05652976  0.57312909  0.11162187    -0.37280
N278        N  0.84664412  0.30196089  0.05270546    -0.37280
C279        C  0.90867297  0.57367440  0.44871563    -0.03950
C280        C  0.95324375  0.61133020  0.46201752    -0.01060
C281        C  0.95698289  0.61308787  0.49191843     0.03930
C282        C  0.91628152  0.57744239  0.00863264    -0.03950
C283        C  0.87010875  0.54362043  0.49551539    -0.01050
C284        C  0.86641525  0.54139783  0.46559213     0.03920
C285        C  0.99688018  0.64558626  0.44503984     0.38570
C286        C  0.82675226  0.51040115  0.01287986     0.38560
C287        C  0.81987580  0.50446861  0.45211115     0.36990
C288        C  0.00385338  0.64939607  0.00542369     0.36990
N289        N  0.78277943  0.47489483  0.44134743    -0.37830
N290        N  0.04120711  0.67839164  0.01619253    -0.37830
N291        N  0.79194379  0.48426078  0.02670417    -0.37280
N292        N  0.03167526  0.67291006  0.43151587    -0.37280
C293        C  0.00401381  0.30101473  0.45455446    -0.03950
C294        C  0.95686810  0.27266916  0.46830507    -0.01060
C295        C  0.95364867  0.27302618  0.49814946     0.03930
C296        C  0.99727001  0.30238842  0.01440581    -0.03950
C297        C  0.04467230  0.32712242  0.00097036    -0.01050
C298        C  0.04804799  0.32637359  0.47101452     0.03920
C299        C  0.91110921  0.24659097  0.45170184     0.38570
C300        C  0.08968671  0.35458017  0.01794397     0.38560
C301        C  0.09651340  0.35292078  0.45700636     0.36990
C302        C  0.90507656  0.24518967  0.01210681     0.36990
N303        N  0.13518808  0.37390821  0.44577674    -0.37830
N304        N  0.86636213  0.22276689  0.02321679    -0.37830
N305        N  0.12561456  0.37628494  0.03153845    -0.37280
N306        N  0.87463154  0.22606108  0.43847317    -0.37280
C307        C  0.97183883  0.39923623  0.38861394    -0.03950
C308        C  0.96527026  0.42053681  0.41364637    -0.01060
C309        C  0.96606759  0.46559859  0.41210127     0.03930
C310        C  0.95318692  0.47987934  0.38638376    -0.03950
C311        C  0.95325493  0.45505020  0.36115483    -0.01050
C312        C  0.96827180  0.41930128  0.36206350     0.03920
C313        C  0.95297693  0.39486763  0.44101722     0.38570
C314        C  0.93657997  0.46435530  0.33437945     0.38560
C315        C  0.98121659  0.40509907  0.33562524     0.36990
C316        C  0.98242680  0.49772935  0.43703161     0.36990
N317        N  0.99175060  0.39429056  0.31437777    -0.37830
N318        N  0.99566917  0.52327678  0.45688191    -0.37830
N319        N  0.92299347  0.47123878  0.31291949    -0.37280
N320        N  0.94289371  0.37472094  0.46290440    -0.37280
C321        C  0.40188429  0.92114629  0.37587710    -0.03950
C322        C  0.39715766  0.87503373  0.38318338    -0.01060
C323        C  0.43988269  0.87106127  0.38382382     0.03930
C324        C  0.48737960  0.91304560  0.37681348    -0.03950
C325        C  0.49114349  0.95741158  0.36651013    -0.01050
C326        C  0.44837456  0.96147412  0.36609681     0.03920
C327        C  0.34854366  0.83227015  0.39108529     0.38570
C328        C  0.53963585  0.00014454  0.35840170     0.38560
C329        C  0.45282963  0.00821990  0.35744133     0.36990
C330        C  0.43544498  0.82452713  0.39299130     0.36990
N331        N  0.45633776  0.04549147  0.35050857    -0.37830
N332        N  0.43192751  0.78745738  0.40038343    -0.37830
N333        N  0.57838464  0.03414671  0.35193054    -0.37280
N334        N  0.30975342  0.79801934  0.39723404    -0.37280
C335        C  0.31111043  0.95452384  0.01098194    -0.03950
C336        C  0.32587648  0.99721883  0.49379687    -0.01060
C337        C  0.32349407  0.99280825  0.46384406     0.03930
C338        C  0.30629835  0.94567256  0.45112274    -0.03950
C339        C  0.28768761  0.90244785  0.46843642    -0.01050
C340        C  0.29031552  0.90689071  0.49826551     0.03920
C341        C  0.34554312  0.04588963  0.00692669     0.38570
C342        C  0.26699617  0.85345782  0.45549896     0.38560
C343        C  0.27350727  0.86265840  0.01594088     0.36990
C344        C  0.34099822  0.03703521  0.44611052     0.36990
N345        N  0.26021151  0.82745317  0.03007165    -0.37830
N346        N  0.35485253  0.07227958  0.43192176    -0.37830
N347        N  0.25023067  0.81425964  0.44529187    -0.37280
N348        N  0.36115535  0.08472142  0.01741728    -0.37280
C349        C  0.60322053  0.93059356  0.01365679    -0.03950
C350        C  0.61302715  0.97275724  0.49721483    -0.01060
C351        C  0.61175000  0.97014179  0.46732005     0.03930
C352        C  0.60099874  0.92548240  0.45363730    -0.03950
C353        C  0.59549300  0.88485489  0.46994603    -0.01050
C354        C  0.59654707  0.88737402  0.49997206     0.03920
C355        C  0.62279405  0.01836527  0.01114944     0.38570
C356        C  0.58593434  0.83950163  0.45586156     0.38560
C357        C  0.58784520  0.84449032  0.01675377     0.36990
C358        C  0.61965751  0.01282286  0.45056114     0.36990
N359        N  0.58096165  0.81029822  0.03016476    -0.37830
N360        N  0.62577442  0.04671189  0.43713346    -0.37830
N361        N  0.57836629  0.80336005  0.44457412    -0.37280
N362        N  0.63044506  0.05463911  0.02230476    -0.37280
C363        C  0.41691346  0.95237927  0.08799900    -0.03950
C364        C  0.40930744  0.90377929  0.08970095    -0.01060
C365        C  0.45078999  0.89770595  0.09031324     0.03930
C366        C  0.49987324  0.94024226  0.08963203    -0.03950
C367        C  0.50736123  0.98882042  0.09069957    -0.01050
C368        C  0.46587242  0.99490204  0.08969744     0.03920
C369        C  0.35879451  0.86005761  0.08909321     0.38570
C370        C  0.55790730  0.03250620  0.09097103     0.38560
C371        C  0.47357033  0.04483324  0.08889244     0.36990
C372        C  0.44310942  0.84776486  0.08998788     0.36990
N373        N  0.47976754  0.08470592  0.08823407    -0.37830
N374        N  0.43694880  0.80790341  0.08967386    -0.37830
N375        N  0.59831926  0.06720394  0.09121369    -0.37280
N376        N  0.31843360  0.82529532  0.08865737    -0.37280
C377        C  0.50415992  0.47365808  0.37649798    -0.03950
C378        C  0.50425812  0.42911486  0.37199727    -0.01060
C379        C  0.45858013  0.38217570  0.37253883     0.03930
C380        C  0.41325728  0.37993718  0.37843158    -0.03950
C381        C  0.41293506  0.42473508  0.38048395    -0.01050
C382        C  0.45812937  0.47144985  0.37843076     0.03920
C383        C  0.55129060  0.43157711  0.36763281     0.38570
C384        C  0.36639082  0.42268555  0.38627879     0.38560
C385        C  0.45746629  0.51744204  0.37818020     0.36990
C386        C  0.45824640  0.33613546  0.36822233     0.36990
N387        N  0.45685164  0.55409007  0.37723958    -0.37830
N388        N  0.45772926  0.29929033  0.36458102    -0.37830
N389        N  0.32927966  0.42086247  0.39123329    -0.37280
N390        N  0.58881437  0.43354962  0.36394646    -0.37280
C391        C  0.29702564  0.26761617  0.45331196    -0.03950
C392        C  0.26470900  0.28122331  0.46564982    -0.01370
C393        C  0.26291213  0.28474151  0.49547226     0.03930
C394        C  0.29271055  0.27374509  0.01276513    -0.03950
C395        C  0.31913665  0.25320887  0.00054961    -0.01050
C396        C  0.32215755  0.25108028  0.47079129     0.03920
C397        C  0.23542072  0.29404320  0.44763615     0.38570
C398        C  0.34362893  0.23488502  0.01869692     0.38560
C399        C  0.35244978  0.23355204  0.45811591     0.36990
C400        C  0.23188895  0.30122617  0.00831186     0.36990
N401        N  0.37668301  0.21963572  0.44801219    -0.37830
N402        N  0.20682922  0.31405888  0.01852334    -0.37830
N403        N  0.36240421  0.21947708  0.03321501    -0.37280
N404        N  0.21184096  0.30390192  0.43319488    -0.37280
C405        C  0.60553268  0.61143181  0.01036218    -0.03950
C406        C  0.64833989  0.61784334  0.49617111    -0.01060
C407        C  0.64774762  0.61225948  0.46630573     0.03930
C408        C  0.60416860  0.59982281  0.45062195    -0.03950
C409        C  0.56404001  0.59963115  0.46457274    -0.01050
C410        C  0.56535137  0.60664549  0.49416137     0.03920
C411        C  0.69200674  0.62764423  0.01228864     0.38570
C412        C  0.52024654  0.59045924  0.44886507     0.38560
C413        C  0.52425225  0.60703351  0.00824310     0.36990
C414        C  0.69084495  0.61627152  0.45211198     0.36990
N415        N  0.49150885  0.60728148  0.01948925    -0.37830
N416        N  0.72544352  0.61985920  0.44083385    -0.37830
N417        N  0.48451407  0.58274055  0.43707615    -0.37280
N418        N  0.72711082  0.63603051  0.02508300    -0.37280
C419        C  0.41049642  0.39435921  0.08384540    -0.03950
C420        C  0.41385415  0.43619187  0.09756385    -0.01060
C421        C  0.46000852  0.48270265  0.09808643     0.03930
C422        C  0.50279627  0.48753088  0.08481009    -0.03950
C423        C  0.50040307  0.44463696  0.07343831    -0.01050
C424        C  0.45456213  0.39832394  0.07295240     0.03920
C425        C  0.36925738  0.43241415  0.10943318     0.38570
C426        C  0.54489778  0.44882108  0.06096956     0.38560
C427        C  0.45267131  0.35517570  0.06024800     0.36990
C428        C  0.46271837  0.52633269  0.11064321     0.36990
N429        N  0.45185199  0.32128032  0.04987406    -0.37830
N430        N  0.46502740  0.56118246  0.12072554    -0.37830
N431        N  0.58033035  0.45238267  0.05086270    -0.37280
N432        N  0.33367774  0.42938465  0.11894352    -0.37280
C433        C  0.59762175  0.59925031  0.54134537     0.04520
C434        C  0.63031671  0.63154783  0.56231333    -0.11630
C435        C  0.62210087  0.61696731  0.59121233     0.02020
C436        C  0.57990722  0.57014805  0.59898018    -0.10160
C437        C  0.54700546  0.53798686  0.57804431     0.04510
C438        C  0.55637379  0.55271123  0.54950872    -0.09580
H439        H  0.66220260  0.66773677  0.55606561     0.10110
H440        H  0.57306776  0.55829427  0.62105204     0.07640
H441        H  0.53131518  0.52723387  0.53336429     0.07480
C442        C  0.30234843  0.29005273  0.54277383     0.04520
C443        C  0.34666750  0.33483564  0.54946661    -0.11630
C444        C  0.36077844  0.34842012  0.57785519     0.02020
C445        C  0.32883476  0.31729382  0.59976686    -0.10160
C446        C  0.28341766  0.27268846  0.59317223     0.04510
C447        C  0.27058528  0.25936868  0.56451603    -0.09580
H448        H  0.37129171  0.35836275  0.53242065     0.10110
H449        H  0.33980289  0.32732968  0.62172740     0.07640
H450        H  0.23660805  0.22446165  0.55897612     0.07480
C451        C  0.30970074  0.27705496  0.92269774     0.04520
C452        C  0.35547856  0.31933136  0.91461248    -0.11630
C453        C  0.36722005  0.33157637  0.88585894     0.02020
C454        C  0.33310026  0.30081808  0.86494736    -0.10160
C455        C  0.28706076  0.25791443  0.87287796     0.04510
C456        C  0.27569074  0.24628257  0.90188885    -0.09580
H457        H  0.38132679  0.34383077  0.93079662     0.10110
H458        H  0.34202279  0.31095924  0.84273270     0.07640
H459        H  0.24014271  0.21380492  0.90843656     0.07480
C460        C  0.59880225  0.58378509  0.92029203     0.04520
C461        C  0.55909252  0.53612411  0.91245114    -0.11630
C462        C  0.55096734  0.52132041  0.88388259     0.02020
C463        C  0.58419422  0.55372802  0.86292022    -0.10160
C464        C  0.62502569  0.60127479  0.87050768     0.04510
C465        C  0.63170776  0.61612333  0.89921529    -0.09580
H466        H  0.53320943  0.51094869  0.92858790     0.10110
H467        H  0.57753677  0.54232864  0.84084472     0.07640
H468        H  0.66198867  0.65325761  0.90520266     0.07480
C469        C  0.61797512  0.93447048  0.59433986     0.04520
C470        C  0.57571943  0.93624333  0.60265537    -0.11630
C471        C  0.54246306  0.93446243  0.58210765     0.02020
C472        C  0.55114954  0.93071714  0.55334189    -0.10160
C473        C  0.59336869  0.92986870  0.54464932     0.04510
C474        C  0.62656215  0.93129782  0.56516123    -0.09580
H475        H  0.56899569  0.93975318  0.62488688     0.10110
H476        H  0.52570357  0.93016008  0.53750064     0.07640
H477        H  0.65942191  0.93100073  0.55828959     0.07480
C478        C  0.29775348  0.95608700  0.59133038     0.04520
C479        C  0.34081173  0.95619767  0.60002229    -0.11630
C480        C  0.37459741  0.95816594  0.57975258     0.02020
C481        C  0.36568631  0.96038494  0.55079600    -0.10160
C482        C  0.32285313  0.95979129  0.54180863     0.04510
C483        C  0.28909242  0.95803406  0.56205058    -0.09580
H484        H  0.34749162  0.95340797  0.62236866     0.10110
H485        H  0.39099057  0.96014720  0.53512208     0.07640
H486        H  0.25543369  0.95645655  0.55489594     0.07480
C487        C  0.29071215  0.93867874  0.87047249     0.04520
C488        C  0.28325157  0.94415542  0.89952213    -0.11630
C489        C  0.31432434  0.94222752  0.92026882     0.02020
C490        C  0.35300539  0.93510123  0.91198927    -0.10160
C491        C  0.36091453  0.92964561  0.88329192     0.04510
C492        C  0.32999976  0.93170786  0.86250305    -0.09580
H493        H  0.25299208  0.94912980  0.90611358     0.10110
H494        H  0.37690873  0.93336000  0.92804171     0.07640
H495        H  0.33614944  0.92709973  0.84033846     0.07480
C496        C  0.61227141  0.91983796  0.87321881     0.04520
C497        C  0.62286973  0.92149971  0.90248713    -0.11630
C498        C  0.58910626  0.91949609  0.92280310     0.02020
C499        C  0.54441465  0.91508999  0.91391350    -0.10160
C500        C  0.53335838  0.91350032  0.88497878     0.04510
C501        C  0.56723422  0.91578668  0.86461726    -0.09580
H502        H  0.65771771  0.92553774  0.90953179     0.10110
H503        H  0.51871872  0.91443622  0.92964429     0.07640
H504        H  0.55875273  0.91517865  0.84223249     0.07480
O505        O  0.68814958  0.67248094  0.70028832    -0.56420
C506        C  0.65818452  0.65016807  0.61298553     0.76200
O507        O  0.76321498  0.80453781  0.64114839    -0.57580
C508        C  0.72262596  0.70652158  0.71543001     0.76180
C509        C  0.81692904  0.70937706  0.64730608     0.78570
Cd510      Cd  0.72937587  0.71593365  0.65467098     1.37460
O511        O  0.65131007  0.63958164  0.63928685    -0.56420
O512        O  0.77604440  0.67294286  0.65671605    -0.55230
C513        C  0.72538184  0.80524106  0.64999211     0.78530
O514        O  0.81689426  0.74820185  0.63957593    -0.57600
O515        O  0.69796975  0.69072331  0.60621468    -0.56050
O516        O  0.75842908  0.74342025  0.70248362    -0.56040
O517        O  0.68912769  0.76452394  0.65974252    -0.55220
O518        O  0.95088109  0.62918864  0.63622192    -0.56420
C519        C  0.95400935  0.69695741  0.71282776     0.76200
O520        O  0.01097033  0.79387877  0.63576026    -0.57580
C521        C  0.94435313  0.63434395  0.61014096     0.76180
C522        C  0.86263867  0.70741383  0.64694311     0.78570
Cd523      Cd  0.95385013  0.70656822  0.65179454     1.37470
O524        O  0.94901622  0.66155519  0.69732457    -0.56420
O525        O  0.86292144  0.66978510  0.65665655    -0.55230
C526        C  0.05077832  0.79710457  0.64437933     0.78530
O527        O  0.90408645  0.74399313  0.63821871    -0.57600
O528        O  0.95876701  0.73489847  0.70014919    -0.56050
O529        O  0.94335089  0.67305157  0.60355560    -0.56040
O530        O  0.04659288  0.75742104  0.65434547    -0.55220
O531        O  0.68210800  0.93667174  0.70358844    -0.56420
C532        C  0.65380558  0.93732596  0.61585513     0.76200
O533        O  0.81131836  0.00074332  0.64105940    -0.57580
C534        C  0.71730645  0.93928186  0.71830805     0.76180
C535        C  0.72421986  0.85139535  0.65037370     0.78570
Cd536      Cd  0.72480681  0.94286839  0.65708296     1.37470
O537        O  0.64782618  0.94073499  0.64223792    -0.56420
O538        O  0.68687762  0.85174801  0.66031480    -0.55230
C539        C  0.81415889  0.04021052  0.65005535     0.78530
O540        O  0.76110356  0.89302189  0.64202288    -0.57600
O541        O  0.69239612  0.93665144  0.60879242    -0.56050
O542        O  0.75439142  0.94396049  0.70481148    -0.56040
O543        O  0.77467271  0.03539718  0.66058015    -0.55220
O544        O  0.96232177  0.21858114  0.70571114    -0.56420
C545        C  0.96949220  0.25005603  0.61675754     0.76200
O546        O  0.00798533  0.14099429  0.64458728    -0.57580
C547        C  0.95662765  0.18153192  0.72013665     0.76180
C548        C  0.86196775  0.08833173  0.65030489     0.78570
Cd549      Cd  0.95842546  0.17758348  0.65894906     1.37470
O550        O  0.96097943  0.25483229  0.64256785    -0.56420
O551        O  0.86582534  0.12757277  0.66054465    -0.55230
C552        C  0.04927676  0.17711682  0.65358122     0.78530
O553        O  0.90202475  0.09164565  0.64205409    -0.57600
O554        O  0.97202601  0.21204204  0.61093454    -0.56050
O555        O  0.95196787  0.14478921  0.70634234    -0.56040
O556        O  0.04892343  0.21412464  0.66407869    -0.55220
O557        O  0.22245182  0.20792864  0.70406731    -0.56420
C558        C  0.24989911  0.23858270  0.61573147     0.76200
O559        O  0.14954949  0.08195169  0.64214404    -0.57580
C560        C  0.18780362  0.17179169  0.71833157     0.76180
C561        C  0.09496661  0.17533675  0.65312069     0.78570
Cd562      Cd  0.18259714  0.16906164  0.65773628     1.37460
O563        O  0.26019481  0.24690174  0.64196827    -0.56420
O564        O  0.13565986  0.21099408  0.66300947    -0.55230
C565        C  0.18772076  0.08095559  0.64992792     0.78530
O566        O  0.09520077  0.13744090  0.64393316    -0.57600
O567        O  0.20907979  0.19885454  0.60955674    -0.56050
O568        O  0.15272565  0.13608846  0.70455176    -0.56040
O569        O  0.22417866  0.12120917  0.65976252    -0.55220
O570        O  0.23001882  0.94502074  0.69969444    -0.56420
C571        C  0.26078742  0.95155807  0.61260684     0.76200
O572        O  0.10167110  0.88553402  0.63665289    -0.57580
C573        C  0.19399231  0.93963598  0.71483324     0.76180
C574        C  0.18885256  0.03477201  0.64917004     0.78570
Cd575      Cd  0.18789079  0.94251879  0.65366999     1.37470
O576        O  0.26616480  0.94745257  0.63899115    -0.56420
O577        O  0.22599912  0.03358926  0.65861251    -0.55230
C578        C  0.09858368  0.84542744  0.64487870     0.78530
O579        O  0.15198486  0.99376379  0.64039299    -0.57600
O580        O  0.22172712  0.95118376  0.60536428    -0.56050
O581        O  0.15682556  0.93550837  0.70175916    -0.56040
O582        O  0.13779911  0.84962318  0.65534945    -0.55220
O583        O  0.65301403  0.62706806  0.82229071    -0.56420
C584        C  0.72254890  0.70455526  0.74652503     0.76200
O585        O  0.76113469  0.79391586  0.82304976    -0.57580
C586        C  0.65996579  0.63633058  0.84867684     0.76180
C587        C  0.81717171  0.70107526  0.81215922     0.78570
Cd588      Cd  0.72890570  0.70684452  0.80732205     1.37460
O589        O  0.68769631  0.66894940  0.76096162    -0.56420
O590        O  0.77646117  0.66520601  0.80243796    -0.55230
C591        C  0.72292234  0.79460614  0.81496297     0.78530
O592        O  0.81669569  0.73891572  0.82121735    -0.57600
O593        O  0.75859674  0.73950658  0.76018607    -0.56050
O594        O  0.69857990  0.67764081  0.85553803    -0.56040
O595        O  0.68689713  0.75426717  0.80493412    -0.55220
O596        O  0.95643874  0.62489540  0.82195717    -0.56420
C597        C  0.95429826  0.69561658  0.74401667     0.76200
O598        O  0.90461557  0.73631543  0.81993317    -0.57580
C599        C  0.94704366  0.62961989  0.84760129     0.76180
C600        C  0.05048556  0.79005453  0.81352514     0.78570
Cd601      Cd  0.95474257  0.70029033  0.80519004     1.37470
O602        O  0.94869451  0.65856749  0.75840986    -0.56420
O603        O  0.04700833  0.75114940  0.80304013    -0.55230
C604        C  0.86315228  0.69965919  0.81151729     0.78530
O605        O  0.01031070  0.78631071  0.82192708    -0.57600
O606        O  0.96014569  0.73282055  0.75783803    -0.56050
O607        O  0.94269292  0.66671929  0.85293917    -0.56040
O608        O  0.86361417  0.66250988  0.80130873    -0.55220
O609        O  0.68082759  0.93256209  0.76453503    -0.56420
C610        C  0.64886129  0.92391525  0.85181297     0.76200
O611        O  0.75778417  0.88173225  0.82438273    -0.57580
C612        C  0.71650740  0.93685485  0.74950034     0.76180
C613        C  0.81001593  0.02954467  0.81914190     0.78570
Cd614      Cd  0.72136703  0.93238094  0.81064815     1.37460
O615        O  0.64154123  0.92427081  0.82533366    -0.56420
O616        O  0.77060583  0.02501783  0.80876293    -0.55230
C617        C  0.72125563  0.84053387  0.81556844     0.78530
O618        O  0.80740225  0.98967786  0.82740007    -0.57600
O619        O  0.68950855  0.92755652  0.85904343    -0.56050
O620        O  0.75262779  0.93886595  0.76266306    -0.56040
O621        O  0.68398645  0.84130365  0.80592744    -0.55220
O622        O  0.96059835  0.21506727  0.76687018    -0.56420
C623        C  0.96218276  0.23927036  0.85492488     0.76200
O624        O  0.89747896  0.08156330  0.82812036    -0.57580
C625        C  0.95549164  0.17963593  0.75133273     0.76180
C626        C  0.04520612  0.16846066  0.81730250     0.78570
Cd627      Cd  0.95366028  0.16886881  0.81235318     1.37460
O628        O  0.95299070  0.24412299  0.82926785    -0.56420
O629        O  0.04495429  0.20638932  0.80806595    -0.55230
C630        C  0.85750259  0.07800150  0.81954820     0.78530
O631        O  0.00361975  0.13145340  0.82553686    -0.57600
O632        O  0.96520323  0.20139339  0.86058773    -0.56050
O633        O  0.94940056  0.14112597  0.76398205    -0.56040
O634        O  0.86121208  0.11747597  0.80959038    -0.55220
O635        O  0.25819060  0.23524630  0.82483759    -0.56420
C636        C  0.18686131  0.16997640  0.74937318     0.76200
O637        O  0.14607656  0.07186465  0.82342692    -0.57580
C638        C  0.25035564  0.22562852  0.85119269     0.76180
C639        C  0.09103700  0.16663519  0.81696806     0.78570
Cd640      Cd  0.17890805  0.16034527  0.80986570     1.37470
O641        O  0.22006966  0.20487855  0.76466284    -0.56420
O642        O  0.13203601  0.20328413  0.80781365    -0.55230
C643        C  0.18435481  0.07186434  0.81470103     0.78530
O644        O  0.09106509  0.12770833  0.82448924    -0.57600
O645        O  0.15154645  0.13230988  0.76210340    -0.56050
O646        O  0.20923703  0.18660098  0.85811600    -0.56040
O647        O  0.22029380  0.11285745  0.80505845    -0.55220
O648        O  0.26240144  0.93472824  0.82240194    -0.56420
C649        C  0.19390031  0.93823439  0.74604196     0.76200
O650        O  0.10058936  0.87748481  0.82309905    -0.57580
C651        C  0.25647298  0.93848716  0.84875340     0.76180
C652        C  0.18635835  0.02618204  0.81425955     0.78570
Cd653      Cd  0.18700766  0.93546654  0.80728359     1.37470
O654        O  0.23036774  0.94360154  0.76070140    -0.56420
O655        O  0.22408485  0.02650877  0.80432660    -0.55230
C656        C  0.09804903  0.83824171  0.81395212     0.78530
O657        O  0.14979356  0.98427822  0.82250615    -0.57600
O658        O  0.15611463  0.93166010  0.75961338    -0.56050
O659        O  0.21909066  0.94145255  0.85562488    -0.56040
O660        O  0.13766380  0.84329114  0.80349067    -0.55220
C661        C  0.97202199  0.27695186  0.87697446     0.04520
C662        C  0.96512282  0.31739531  0.87169230    -0.11630
C663        C  0.98313809  0.35770636  0.89114509     0.02020
C664        C  0.00891619  0.35602129  0.91529765    -0.10160
C665        C  0.00512263  0.31124766  0.92358082     0.04510
C666        C  0.98900444  0.27263246  0.90384748    -0.09580
H667        H  0.94470971  0.31614252  0.85292160     0.10110
H668        H  0.02641732  0.38728815  0.92988352     0.07640
H669        H  0.98822126  0.23875165  0.90988171     0.07480
C670        C  0.93931777  0.59329619  0.87029069     0.04520
C671        C  0.95028701  0.55532050  0.86623455    -0.11630
C672        C  0.93727399  0.51797550  0.88734872     0.02020
C673        C  0.91203662  0.51946580  0.91179570    -0.10160
C674        C  0.91043004  0.56208086  0.91822255     0.04510
C675        C  0.92169705  0.59770339  0.89696500    -0.09580
H676        H  0.97015460  0.55628165  0.84721932     0.10110
H677        H  0.89913366  0.49020821  0.92780875     0.07640
H678        H  0.91839883  0.62972189  0.90171827     0.07480
C679        C  0.97601520  0.28635116  0.59433090     0.04520
C680        C  0.96873814  0.32621063  0.60024273    -0.11630
C681        C  0.97268096  0.35878067  0.57835745     0.02020
C682        C  0.98481591  0.35208219  0.55072883    -0.10160
C683        C  0.99204548  0.31262667  0.54457265     0.04510
C684        C  0.98772549  0.27989417  0.56632381    -0.09580
H685        H  0.95852992  0.33104692  0.62148161     0.10110
H686        H  0.98644733  0.37637635  0.53367347     0.07640
H687        H  0.99214110  0.24869786  0.56115302     0.07480
C688        C  0.93816836  0.59745338  0.58838949     0.04520
C689        C  0.92925026  0.60436811  0.55987166    -0.11630
C690        C  0.92428490  0.57034642  0.53897480     0.02020
C691        C  0.92925889  0.52985370  0.54641548    -0.10160
C692        C  0.93720991  0.52159152  0.57474828     0.04510
C693        C  0.94122193  0.55539401  0.59577240    -0.09580
H694        H  0.92638017  0.63621708  0.55378050     0.10110
H695        H  0.92722013  0.50471894  0.52991392     0.07640
H696        H  0.94712035  0.54913206  0.61771523     0.07480
C697        C  0.95980292  0.39760119  0.58312832    -0.03950
C698        C  0.91388490  0.38952204  0.57284608    -0.01060
C699        C  0.90479940  0.42908782  0.57250353     0.03930
C700        C  0.94236850  0.47773939  0.58146919    -0.03950
C701        C  0.98694553  0.48478499  0.59370118    -0.01050
C702        C  0.99526996  0.44453990  0.59480752     0.03920
C703        C  0.87649796  0.34072727  0.56170466     0.38570
C704        C  0.02564816  0.53395886  0.60360937     0.38560
C705        C  0.04134116  0.45195586  0.60674387     0.36990
C706        C  0.85684961  0.41966582  0.56243711     0.36990
N707        N  0.07796243  0.45769781  0.61638481    -0.37830
N708        N  0.81845456  0.41162071  0.55435796    -0.37830
N709        N  0.05652979  0.57312908  0.61162189    -0.37280
N710        N  0.84664417  0.30196090  0.55270544    -0.37280
C711        C  0.90867294  0.57367439  0.94871563    -0.03950
C712        C  0.95324372  0.61133019  0.96201752    -0.01060
C713        C  0.95698285  0.61308786  0.99191843     0.03930
C714        C  0.91628157  0.57744240  0.50863264    -0.03950
C715        C  0.87010871  0.54362042  0.99551539    -0.01050
C716        C  0.86641522  0.54139782  0.96559212     0.03920
C717        C  0.99688016  0.64558625  0.94503985     0.38570
C718        C  0.82675231  0.51040116  0.51287987     0.38560
C719        C  0.81987576  0.50446861  0.95211115     0.36990
C720        C  0.00385343  0.64939609  0.50542368     0.36990
N721        N  0.78277939  0.47489484  0.94134742    -0.37830
N722        N  0.04120716  0.67839165  0.51619252    -0.37830
N723        N  0.79194384  0.48426079  0.52670418    -0.37280
N724        N  0.03167524  0.67291004  0.93151588    -0.37280
C725        C  0.00401377  0.30101472  0.95455446    -0.03950
C726        C  0.95686807  0.27266914  0.96830507    -0.01060
C727        C  0.95364864  0.27302617  0.99814946     0.03930
C728        C  0.99727004  0.30238842  0.51440581    -0.03950
C729        C  0.04467234  0.32712242  0.50097037    -0.01050
C730        C  0.04804795  0.32637358  0.97101452     0.03920
C731        C  0.91110918  0.24659094  0.95170184     0.38570
C732        C  0.08968674  0.35458015  0.51794397     0.38560
C733        C  0.09651336  0.35292079  0.95700636     0.36990
C734        C  0.90507660  0.24518967  0.51210681     0.36990
N735        N  0.13518804  0.37390822  0.94577674    -0.37830
N736        N  0.86636216  0.22276690  0.52321679    -0.37830
N737        N  0.12561460  0.37628491  0.53153845    -0.37280
N738        N  0.87463150  0.22606104  0.93847317    -0.37280
C739        C  0.97183878  0.39923620  0.88861394    -0.03950
C740        C  0.96527019  0.42053677  0.91364637    -0.01060
C741        C  0.96606753  0.46559855  0.91210128     0.03930
C742        C  0.95318687  0.47987932  0.88638377    -0.03950
C743        C  0.95325489  0.45505018  0.86115483    -0.01050
C744        C  0.96827175  0.41930126  0.86206350     0.03920
C745        C  0.95297685  0.39486757  0.94101722     0.38570
C746        C  0.93657995  0.46435530  0.83437945     0.38560
C747        C  0.98121656  0.40509906  0.83562524     0.36990
C748        C  0.98242672  0.49772930  0.93703162     0.36990
N749        N  0.99175057  0.39429055  0.81437777    -0.37830
N750        N  0.99566909  0.52327671  0.95688192    -0.37830
N751        N  0.92299346  0.47123879  0.81291949    -0.37280
N752        N  0.94289362  0.37472088  0.96290439    -0.37280
C753        C  0.40188429  0.92114630  0.87587711    -0.03950
C754        C  0.39715766  0.87503373  0.88318339    -0.01060
C755        C  0.43988268  0.87106127  0.88382382     0.03930
C756        C  0.48737960  0.91304559  0.87681348    -0.03950
C757        C  0.49114348  0.95741158  0.86651013    -0.01050
C758        C  0.44837456  0.96147412  0.86609681     0.03920
C759        C  0.34854365  0.83227016  0.89108530     0.38570
C760        C  0.53963584  0.00014453  0.85840170     0.38560
C761        C  0.45282964  0.00821990  0.85744133     0.36990
C762        C  0.43544497  0.82452712  0.89299131     0.36990
N763        N  0.45633776  0.04549147  0.85050857    -0.37830
N764        N  0.43192750  0.78745738  0.90038344    -0.37830
N765        N  0.57838464  0.03414670  0.85193054    -0.37280
N766        N  0.30975341  0.79801935  0.89723406    -0.37280
C767        C  0.31111044  0.95452383  0.51098194    -0.03950
C768        C  0.32587649  0.99721884  0.99379687    -0.01060
C769        C  0.32349409  0.99280827  0.96384406     0.03930
C770        C  0.30629834  0.94567258  0.95112274    -0.03950
C771        C  0.28768758  0.90244786  0.96843641    -0.01050
C772        C  0.29031548  0.90689071  0.99826550     0.03920
C773        C  0.34554308  0.04588961  0.50692669     0.38570
C774        C  0.26699612  0.85345783  0.95549895     0.38560
C775        C  0.27350734  0.86265840  0.51594088     0.36990
C776        C  0.34099826  0.03703524  0.94611052     0.36990
N777        N  0.26021161  0.82745317  0.53007166    -0.37830
N778        N  0.35485260  0.07227961  0.93192176    -0.37830
N779        N  0.25023060  0.81425965  0.94529186    -0.37280
N780        N  0.36115530  0.08472140  0.51741728    -0.37280
C781        C  0.60322053  0.93059355  0.51365679    -0.03950
C782        C  0.61302715  0.97275725  0.99721482    -0.01060
C783        C  0.61174999  0.97014179  0.96732004     0.03930
C784        C  0.60099875  0.92548240  0.95363730    -0.03950
C785        C  0.59549301  0.88485490  0.96994603    -0.01050
C786        C  0.59654708  0.88737403  0.99997206     0.03920
C787        C  0.62279406  0.01836526  0.51114945     0.38570
C788        C  0.58593435  0.83950164  0.95586157     0.38560
C789        C  0.58784519  0.84449030  0.51675377     0.36990
C790        C  0.61965751  0.01282286  0.95056114     0.36990
N791        N  0.58096163  0.81029820  0.53016476    -0.37830
N792        N  0.62577441  0.04671189  0.93713345    -0.37830
N793        N  0.57836631  0.80336005  0.94457413    -0.37280
N794        N  0.63044507  0.05463910  0.52230477    -0.37280
C795        C  0.41691348  0.95237929  0.58799900    -0.03950
C796        C  0.40930745  0.90377930  0.58970096    -0.01060
C797        C  0.45079000  0.89770595  0.59031325     0.03930
C798        C  0.49987325  0.94024226  0.58963203    -0.03950
C799        C  0.50736124  0.98882042  0.59069956    -0.01050
C800        C  0.46587244  0.99490205  0.58969743     0.03920
C801        C  0.35879452  0.86005763  0.58909324     0.38570
C802        C  0.55790732  0.03250620  0.59097101     0.38560
C803        C  0.47357036  0.04483325  0.58889242     0.36990
C804        C  0.44310943  0.84776486  0.58998790     0.36990
N805        N  0.47976758  0.08470593  0.58823405    -0.37830
N806        N  0.43694880  0.80790341  0.58967390    -0.37830
N807        N  0.59831928  0.06720393  0.59121367    -0.37280
N808        N  0.31843360  0.82529534  0.58865741    -0.37280
C809        C  0.50415987  0.47365812  0.87649797    -0.03950
C810        C  0.50425808  0.42911491  0.87199724    -0.01060
C811        C  0.45858010  0.38217574  0.87253881     0.03930
C812        C  0.41325725  0.37993720  0.87843158    -0.03950
C813        C  0.41293501  0.42473509  0.88048397    -0.01050
C814        C  0.45812932  0.47144987  0.87843078     0.03920
C815        C  0.55129057  0.43157718  0.86763275     0.38570
C816        C  0.36639077  0.42268553  0.88627883     0.38560
C817        C  0.45746621  0.51744205  0.87818025     0.36990
C818        C  0.45824639  0.33613552  0.86822228     0.36990
N819        N  0.45685154  0.55409007  0.87723966    -0.37830
N820        N  0.45772927  0.29929040  0.86458095    -0.37830
N821        N  0.32927960  0.42086243  0.89123334    -0.37280
N822        N  0.58881435  0.43354972  0.86394639    -0.37280
C823        C  0.29702567  0.26761614  0.95331196    -0.03950
C824        C  0.26470905  0.28122330  0.96564983    -0.01370
C825        C  0.26291219  0.28474149  0.99547227     0.03930
C826        C  0.29271048  0.27374511  0.51276513    -0.03950
C827        C  0.31913659  0.25320890  0.50054962    -0.01050
C828        C  0.32215758  0.25108025  0.97079128     0.03920
C829        C  0.23542076  0.29404320  0.94763617     0.38570
C830        C  0.34362887  0.23488506  0.51869694     0.38560
C831        C  0.35244979  0.23355200  0.95811589     0.36990
C832        C  0.23188887  0.30122617  0.50831184     0.36990
N833        N  0.37668301  0.21963567  0.94801216    -0.37830
N834        N  0.20682912  0.31405887  0.51852331    -0.37830
N835        N  0.36240415  0.21947712  0.53321503    -0.37280
N836        N  0.21184100  0.30390193  0.93319491    -0.37280
C837        C  0.60553260  0.61143190  0.51036217    -0.03950
C838        C  0.64833994  0.61784322  0.99617110    -0.01060
C839        C  0.64774765  0.61225939  0.96630572     0.03930
C840        C  0.60416865  0.59982281  0.95062195    -0.03950
C841        C  0.56404010  0.59963120  0.96457275    -0.01050
C842        C  0.56535146  0.60664547  0.99416139     0.03920
C843        C  0.69200671  0.62764445  0.51228866     0.38570
C844        C  0.52024667  0.59045942  0.94886509     0.38560
C845        C  0.52425213  0.60703352  0.50824306     0.36990
C846        C  0.69084495  0.61627137  0.95211196     0.36990
N847        N  0.49150872  0.60728148  0.51948919    -0.37830
N848        N  0.72544349  0.61985901  0.94083381    -0.37830
N849        N  0.48451424  0.58274084  0.93707617    -0.37280
N850        N  0.72711081  0.63603080  0.52508302    -0.37280
C851        C  0.41049635  0.39435926  0.58384538    -0.03950
C852        C  0.41385408  0.43619190  0.59756386    -0.01060
C853        C  0.46000845  0.48270269  0.59808644     0.03930
C854        C  0.50279619  0.48753094  0.58481008    -0.03950
C855        C  0.50040299  0.44463704  0.57343826    -0.01050
C856        C  0.45456205  0.39832402  0.57295236     0.03920
C857        C  0.36925731  0.43241416  0.60943322     0.38570
C858        C  0.54489769  0.44882118  0.56096949     0.38560
C859        C  0.45267124  0.35517579  0.56024792     0.36990
C860        C  0.46271830  0.52633271  0.61064325     0.36990
N861        N  0.45185192  0.32128044  0.54987396    -0.37830
N862        N  0.46502733  0.56118247  0.62072560    -0.37830
N863        N  0.58033025  0.45238280  0.55086261    -0.37280
N864        N  0.33367769  0.42938464  0.61894358    -0.37280
loop_ 
_geom_bond_atom_site_label_1 
_geom_bond_atom_site_label_2 
_geom_bond_distance 
_geom_bond_site_symmetry_2 
_ccdc_geom_bond_type 
C1            C2   1.402       .  A
C1            C6   1.399       .  A
C1          C405   1.491       .  S
C2            C3   1.411       .  A
C2            H7   1.084       .  S
C3            C4   1.410       .  A
C3           C74   1.477       .  S
C4            C5   1.402       .  A
C4            H8   1.083       .  S
C5            C6   1.396       .  A
C5          C422   1.487       .  S
C6            H9   1.085       .  S
C10          C11   1.397       .  A
C10          C15   1.394       .  A
C10         C394   1.478       .  S
C11          C12   1.402       .  A
C11          H16   1.085       .  S
C12          C13   1.406       .  A
C12         C419   1.492       .  S
C13          C14   1.410       .  A
C13          H17   1.083       .  S
C14          C15   1.407       .  A
C14         C126   1.476       .  S
C15          H18   1.085       .  S
C19          C20   1.398       .  A
C19          C24   1.397       .  A
C19         C391   1.479       .  S
C20          C21   1.398       .  A
C20          H25   1.085       .  S
C21          C22   1.402       .  A
C21         C380   1.482       .  S
C22          C23   1.409       .  A
C22          H26   1.083       .  S
C23          C24   1.406       .  A
C23         C206   1.474       .  S
C24          H27   1.085       .  S
C28          C29   1.402       .  A
C28          C33   1.401       .  A
C28         C408   1.493       .  S
C29          C30   1.402       .  A
C29          H34   1.085       .  S
C30          C31   1.402       .  A
C30         C377   1.485       .  S
C31          C32   1.409       .  A
C31          H35   1.083       .  S
C32          C33   1.409       .  A
C32         C154   1.477       .  S
C33          H36   1.084       .  S
C37          C38   1.409       .  A
C37          C42   1.411       .  A
C37         C100   1.479       .  S
C38          C39   1.401       .  A
C38          H43   1.083       .  S
C39          C40   1.396       .  A
C39         C366   1.480       .  S
C40          C41   1.398       .  A
C40          H44   1.085       .  S
C41          C42   1.402       .  A
C41         C349   1.486       .  S
C42          H45   1.083       .  S
C46          C47   1.408       .  A
C46          C51   1.410       .  A
C46         C139   1.479       .  S
C47          C48   1.401       .  A
C47          H52   1.083       .  S
C48          C49   1.398       .  A
C48         C363   1.481       .  S
C49          C50   1.398       .  A
C49          H53   1.085       .  S
C50          C51   1.401       .  A
C50         C335   1.484       .  S
C51          H54   1.083       .  S
C55          C56   1.411       .  A
C55          C60   1.409       .  A
C55         C219   1.479       .  S
C56          C57   1.402       .  A
C56          H61   1.083       .  S
C57          C58   1.398       .  A
C57         C338   1.486       .  S
C58          C59   1.398       .  A
C58          H62   1.085       .  S
C59          C60   1.401       .  A
C59         C321   1.482       .  S
C60          H63   1.083       .  S
C64          C65   1.410       .  A
C64          C69   1.409       .  A
C64         C178   1.479       .  S
C65          C66   1.401       .  A
C65          H70   1.083       .  S
C66          C67   1.397       .  A
C66         C352   1.485       .  S
C67          C68   1.398       .  A
C67          H71   1.085       .  S
C68          C69   1.402       .  A
C68         C324   1.484       .  S
C69          H72   1.083       .  S
O73          C76   1.268       .  A
O73         Cd78   2.498       .  S
C74          O83   1.265       .  A
C74          O79   1.267       .  A
O75          C81   1.267       .  A
O75         Cd78   2.471       .  S
C76         C152   1.463       .  S
C76          O84   1.263       .  A
C77          C90   1.465       .  S
C77          O82   1.266       .  A
C77          O80   1.264       .  A
Cd78         O85   2.443       .  S
Cd78         O84   2.412       .  S
Cd78         O83   2.446       .  S
Cd78         O79   2.469       .  S
Cd78         O82   2.475       .  S
Cd78         O80   2.453       .  S
C81         C103   1.463       .  S
C81          O85   1.264       .  A
O86          C89   1.266       .  A
O86         Cd91   2.486       .  S
C87         C165   1.467       .  S
C87          O96   1.262       .  A
C87          O92   1.268       .  A
O88          C94   1.264       .  A
O88         Cd91   2.466   1_455  S
C89         C256   1.480       .  S
C89          O97   1.264       .  A
C90          O95   1.265       .  A
C90          O93   1.265       .  A
Cd91         O98   2.478   1_655  S
Cd91         O97   2.451       .  S
Cd91         O96   2.418       .  S
Cd91         O92   2.517       .  S
Cd91         O95   2.473       .  S
Cd91         O93   2.460       .  S
C94         C146   1.467       .  S
C94          O98   1.265       .  A
O99         C102   1.268       .  A
O99        Cd104   2.515       .  S
C100        O109   1.264       .  A
C100        O105   1.267       .  A
O101        C107   1.265       .  A
O101       Cd104   2.455   1_545  S
C102        C180   1.467       .  S
C102        O110   1.262       .  A
C103        O108   1.265       .  A
C103        O106   1.265       .  A
Cd104       O111   2.470   1_565  S
Cd104       O110   2.421       .  S
Cd104       O109   2.454       .  S
Cd104       O105   2.478       .  S
Cd104       O108   2.468       .  S
Cd104       O106   2.449       .  S
C107        C116   1.464       .  S
C107        O111   1.265       .  A
O112        C115   1.269       .  A
O112       Cd117   2.520       .  S
C113        C247   1.479       .  S
C113        O122   1.263       .  A
C113        O118   1.268       .  A
O114        C120   1.265       .  A
O114       Cd117   2.459   1_455  S
C115        C193   1.467       .  S
C115        O123   1.262       .  A
C116        O121   1.264       .  A
C116        O119   1.266       .  A
Cd117       O124   2.451   1_655  S
Cd117       O123   2.412       .  S
Cd117       O122   2.436       .  S
Cd117       O118   2.493       .  S
Cd117       O121   2.452       .  S
Cd117       O119   2.471       .  S
C120        C129   1.462       .  S
C120        O124   1.265       .  A
O125        C128   1.269       .  A
O125       Cd130   2.493       .  S
C126        O135   1.265       .  A
C126        O131   1.268       .  A
O127        C133   1.267       .  A
O127       Cd130   2.468       .  S
C128        C204   1.460       .  S
C128        O136   1.262       .  A
C129        O134   1.267       .  A
C129        O132   1.264       .  A
Cd130       O137   2.447       .  S
Cd130       O136   2.397       .  S
Cd130       O135   2.419       .  S
Cd130       O131   2.482       .  S
Cd130       O134   2.462       .  S
Cd130       O132   2.443       .  S
C133        C142   1.464       .  S
C133        O137   1.265       .  A
O138        C141   1.268       .  A
O138       Cd143   2.515       .  S
C139        O148   1.265       .  A
C139        O144   1.267       .  A
O140        C146   1.265       .  A
O140       Cd143   2.465       .  S
C141        C217   1.467       .  S
C141        O149   1.263       .  A
C142        O147   1.265   1_545  A
C142        O145   1.264       .  A
Cd143       O150   2.475       .  S
Cd143       O149   2.423       .  S
Cd143       O148   2.458       .  S
Cd143       O144   2.472       .  S
Cd143       O147   2.471       .  S
Cd143       O145   2.456   1_565  S
C146        O150   1.265       .  A
O151        C154   1.268       .  A
O151       Cd156   2.476       .  S
C152        O161   1.263       .  A
C152        O157   1.269       .  A
O153        C159   1.267       .  A
O153       Cd156   2.473       .  S
C154        O162   1.265       .  A
C155        C172   1.465       .  S
C155        O160   1.267       .  A
C155        O158   1.264       .  A
Cd156       O163   2.448       .  S
Cd156       O162   2.438       .  S
Cd156       O161   2.408       .  S
Cd156       O157   2.498       .  S
Cd156       O160   2.472       .  S
Cd156       O158   2.451       .  S
C159        C185   1.465       .  S
C159        O163   1.265       .  A
O164        C167   1.268       .  A
O164       Cd169   2.510       .  S
C165        O174   1.262       .  A
C165        O170   1.269       .  A
O166        C172   1.265       .  A
O166       Cd169   2.465       .  S
C167        C238   1.479       .  S
C167        O175   1.263       .  A
C168        C224   1.462       .  S
C168        O173   1.264       .  A
C168        O171   1.265       .  A
Cd169       O176   2.458       .  S
Cd169       O175   2.418       .  S
Cd169       O174   2.412       .  S
Cd169       O170   2.518       .  S
Cd169       O173   2.448   1_655  S
Cd169       O171   2.464   1_655  S
C172        O176   1.266       .  A
O177        C180   1.268       .  A
O177       Cd182   2.514       .  S
C178        O187   1.265       .  A
C178        O183   1.267       .  A
O179        C185   1.265       .  A
O179       Cd182   2.473       .  S
C180        O188   1.263       .  A
C181        C198   1.465       .  S
C181        O186   1.265   1_545  A
C181        O184   1.265       .  A
Cd182       O189   2.458       .  S
Cd182       O188   2.423       .  S
Cd182       O187   2.455       .  S
Cd182       O183   2.475       .  S
Cd182       O186   2.458       .  S
Cd182       O184   2.468   1_565  S
C185        O189   1.265       .  A
O190        C193   1.268       .  A
O190       Cd195   2.520       .  S
C191        C229   1.479       .  S
C191        O200   1.264       .  A
C191        O196   1.267       .  A
O192        C198   1.264       .  A
O192       Cd195   2.458       .  S
C193        O201   1.262       .  A
C194        C207   1.467       .  S
C194        O199   1.265       .  A
C194        O197   1.265       .  A
Cd195       O202   2.471       .  S
Cd195       O201   2.416       .  S
Cd195       O200   2.437       .  S
Cd195       O196   2.498       .  S
Cd195       O199   2.474   1_655  S
Cd195       O197   2.465   1_655  S
C198        O202   1.265       .  A
O203        C206   1.267       .  A
O203       Cd208   2.463       .  S
C204        O213   1.263       .  A
C204        O209   1.268       .  A
O205        C211   1.267       .  A
O205       Cd208   2.474       .  S
C206        O214   1.266       .  A
C207        O212   1.267       .  A
C207        O210   1.265       .  A
Cd208       O215   2.441       .  S
Cd208       O214   2.433       .  S
Cd208       O213   2.403       .  S
Cd208       O209   2.491       .  S
Cd208       O212   2.476       .  S
Cd208       O210   2.457       .  S
C211        C220   1.463       .  S
C211        O215   1.264       .  A
O216        C219   1.267       .  A
O216       Cd221   2.479       .  S
C217        O226   1.262       .  A
C217        O222   1.269       .  A
O218        C224   1.265       .  A
O218       Cd221   2.451       .  S
C219        O227   1.264       .  A
C220        O225   1.265   1_545  A
C220        O223   1.266       .  A
Cd221       O228   2.462       .  S
Cd221       O227   2.453       .  S
Cd221       O226   2.420       .  S
Cd221       O222   2.516       .  S
Cd221       O225   2.465       .  S
Cd221       O223   2.450   1_565  S
C224        O228   1.265       .  A
C229        C230   1.412       .  A
C229        C234   1.404       .  A
C230        C231   1.417       .  A
C230        H235   1.079       .  S
C231        C232   1.410   1_655  A
C231        C307   1.519       .  S
C232        C233   1.395       .  A
C232        H236   1.082       .  S
C233        C234   1.394   1_455  A
C233        C293   1.486       .  S
C234        H237   1.083       .  S
C238        C239   1.412       .  A
C238        C243   1.406       .  A
C239        C240   1.416       .  A
C239        H244   1.080       .  S
C240        C241   1.409       .  A
C240        C310   1.514       .  S
C241        C242   1.394       .  A
C241        H245   1.083       .  S
C242        C243   1.393       .  A
C242        C279   1.488       .  S
C243        H246   1.083       .  S
C247        C248   1.409       .  A
C247        C252   1.410       .  A
C248        C249   1.403       .  A
C248        H253   1.083       .  S
C249        C250   1.400       .  A
C249        C265   1.484       .  S
C250        C251   1.398       .  A
C250        H254   1.085       .  S
C251        C252   1.399       .  A
C251        C296   1.483       .  S
C252        H255   1.083       .  S
C256        C257   1.408       .  A
C256        C261   1.410       .  A
C257        C258   1.399       .  A
C257        H262   1.083       .  S
C258        C259   1.398       .  A
C258        C282   1.484       .  S
C259        C260   1.403       .  A
C259        H263   1.084       .  S
C260        C261   1.407       .  A
C260        C268   1.495       .  S
C261        H264   1.083       .  S
C265        C266   1.410       .  A
C265        C270   1.410       .  A
C266        C267   1.408       .  A
C266        C271   1.452       .  S
C267        C268   1.416       .  A
C267        C274   1.451       .  S
C268        C269   1.417       .  A
C269        C270   1.414       .  A
C269        C272   1.450   1_655  S
C270        C273   1.450   1_655  S
C271        N278   1.157       .  T
C272        N277   1.157       .  T
C273        N275   1.157       .  T
C274        N276   1.157       .  T
C279        C280   1.418       .  A
C279        C284   1.411       .  A
C280        C281   1.409       .  A
C280        C285   1.452       .  S
C281        C714   1.409       .  A
C281        C720   1.451   1_655  S
C282        C713   1.409   1_554  A
C282        C715   1.412   1_554  A
C283        C284   1.410       .  A
C283        C714   1.412       .  A
C283        C718   1.450       .  S
C284        C287   1.450       .  S
C285        N292   1.157   1_655  T
C286        C715   1.450   1_554  S
C286        N291   1.157       .  T
C287        N289   1.157       .  T
C288        C713   1.451   1_454  S
C288        N290   1.157       .  T
C293        C294   1.416   1_455  A
C293        C298   1.411       .  A
C294        C295   1.407       .  A
C294        C299   1.453       .  S
C295        C728   1.409       .  A
C295        C734   1.452       .  S
C296        C297   1.411   1_655  A
C296        C727   1.409   1_554  A
C297        C730   1.413   1_554  A
C297        C300   1.449       .  S
C298        C729   1.413       .  A
C298        C301   1.449       .  S
C299        N306   1.157       .  T
C300        N305   1.157       .  T
C301        N303   1.157       .  T
C302        C727   1.452   1_554  S
C302        N304   1.157       .  T
C307        C308   1.421       .  A
C307        C312   1.425       .  A
C308        C309   1.398       .  A
C308        C313   1.454       .  S
C309        C310   1.417       .  A
C309        C316   1.455       .  S
C310        C311   1.421       .  A
C311        C312   1.423       .  A
C311        C314   1.449       .  S
C312        C315   1.449       .  S
C313        N320   1.158       .  T
C314        N319   1.158       .  T
C315        N317   1.158       .  T
C316        N318   1.158       .  T
C321        C322   1.411       .  A
C321        C326   1.411       .  A
C322        C323   1.408       .  A
C322        C327   1.451       .  S
C323        C324   1.412       .  A
C323        C330   1.451       .  S
C324        C325   1.413       .  A
C325        C326   1.411       .  A
C325        C328   1.451   1_565  S
C326        C329   1.450   1_565  S
C327        N334   1.157       .  T
C328        N333   1.157       .  T
C329        N331   1.157       .  T
C330        N332   1.157       .  T
C335        C768   1.411   1_554  A
C335        C772   1.411   1_554  A
C336        C337   1.413       .  A
C336        C767   1.411       .  A
C336        C773   1.450   1_565  S
C337        C338   1.413       .  A
C337        C344   1.450   1_565  S
C338        C339   1.412       .  A
C339        C340   1.408       .  A
C339        C342   1.450       .  S
C340        C767   1.411       .  A
C340        C775   1.451       .  S
C341        C768   1.450   1_544  S
C341        N348   1.157       .  T
C342        N347   1.157       .  T
C343        C772   1.451   1_554  S
C343        N345   1.157       .  T
C344        N346   1.157       .  T
C349        C782   1.413   1_554  A
C349        C786   1.413   1_554  A
C350        C351   1.407       .  A
C350        C781   1.413       .  A
C350        C787   1.452   1_565  S
C351        C352   1.411       .  A
C351        C358   1.452   1_565  S
C352        C353   1.412       .  A
C353        C354   1.413       .  A
C353        C356   1.450       .  S
C354        C781   1.413       .  A
C354        C789   1.450       .  S
C355        C782   1.452   1_544  S
C355        N362   1.157       .  T
C356        N361   1.157       .  T
C357        C786   1.450   1_554  S
C357        N359   1.157       .  T
C358        N360   1.157       .  T
C363        C364   1.411       .  A
C363        C368   1.410       .  A
C364        C365   1.409       .  A
C364        C369   1.451       .  S
C365        C366   1.410       .  A
C365        C372   1.450       .  S
C366        C367   1.412       .  A
C367        C368   1.410       .  A
C367        C370   1.451   1_565  S
C368        C371   1.450   1_565  S
C369        N376   1.157       .  T
C370        N375   1.157       .  T
C371        N373   1.157       .  T
C372        N374   1.157       .  T
C377        C378   1.411       .  A
C377        C382   1.410       .  A
C378        C379   1.414       .  A
C378        C383   1.449       .  S
C379        C380   1.412       .  A
C379        C386   1.450       .  S
C380        C381   1.410       .  A
C381        C382   1.406       .  A
C381        C384   1.451       .  S
C382        C385   1.449       .  S
C383        N390   1.157       .  T
C384        N389   1.157       .  T
C385        N387   1.157       .  T
C386        N388   1.157       .  T
C391        C392   1.413       .  A
C391        C396   1.410       .  A
C392        C393   1.410       .  A
C392        C397   1.450       .  S
C393        C826   1.409       .  A
C393        C832   1.450       .  S
C394        C395   1.410       .  A
C394        C825   1.409   1_554  A
C395        C828   1.406   1_554  A
C395        C398   1.450       .  S
C396        C827   1.406       .  A
C396        C399   1.450       .  S
C397        N404   1.157       .  T
C398        N403   1.157       .  T
C399        N401   1.157       .  T
C400        C825   1.450   1_554  S
C400        N402   1.157       .  T
C405        C838   1.414   1_554  A
C405        C842   1.411   1_554  A
C406        C407   1.414       .  A
C406        C837   1.414       .  A
C406        C843   1.450       .  S
C407        C408   1.416       .  A
C407        C414   1.451       .  S
C408        C409   1.415       .  A
C409        C410   1.406       .  A
C409        C412   1.449       .  S
C410        C837   1.411       .  A
C410        C845   1.453       .  S
C411        C838   1.450   1_554  S
C411        N418   1.157       .  T
C412        N417   1.156       .  T
C413        C842   1.453   1_554  S
C413        N415   1.157       .  T
C414        N416   1.157       .  T
C419        C420   1.415       .  A
C419        C424   1.415       .  A
C420        C421   1.415       .  A
C420        C425   1.450       .  S
C421        C422   1.412       .  A
C421        C428   1.450       .  S
C422        C423   1.411       .  A
C423        C424   1.407       .  A
C423        C426   1.453       .  S
C424        C427   1.451       .  S
C425        N432   1.157       .  T
C426        N431   1.157       .  T
C427        N429   1.157       .  T
C428        N430   1.157       .  T
C433        C434   1.402       .  A
C433        C438   1.399       .  A
C433        C837   1.491       .  S
C434        C435   1.411       .  A
C434        H439   1.084       .  S
C435        C436   1.410       .  A
C435        C506   1.477       .  S
C436        C437   1.402       .  A
C436        H440   1.083       .  S
C437        C438   1.396       .  A
C437        C854   1.487       .  S
C438        H441   1.085       .  S
C442        C443   1.397       .  A
C442        C447   1.394       .  A
C442        C826   1.478       .  S
C443        C444   1.402       .  A
C443        H448   1.085       .  S
C444        C445   1.406       .  A
C444        C851   1.492       .  S
C445        C446   1.410       .  A
C445        H449   1.083       .  S
C446        C447   1.407       .  A
C446        C558   1.476       .  S
C447        H450   1.085       .  S
C451        C452   1.398       .  A
C451        C456   1.397       .  A
C451        C823   1.479       .  S
C452        C453   1.398       .  A
C452        H457   1.085       .  S
C453        C454   1.402       .  A
C453        C812   1.482       .  S
C454        C455   1.409       .  A
C454        H458   1.083       .  S
C455        C456   1.406       .  A
C455        C638   1.474       .  S
C456        H459   1.085       .  S
C460        C461   1.402       .  A
C460        C465   1.401       .  A
C460        C840   1.493       .  S
C461        C462   1.402       .  A
C461        H466   1.085       .  S
C462        C463   1.402       .  A
C462        C809   1.485       .  S
C463        C464   1.409       .  A
C463        H467   1.083       .  S
C464        C465   1.409       .  A
C464        C586   1.477       .  S
C465        H468   1.084       .  S
C469        C470   1.409       .  A
C469        C474   1.411       .  A
C469        C532   1.479       .  S
C470        C471   1.401       .  A
C470        H475   1.083       .  S
C471        C472   1.396       .  A
C471        C798   1.480       .  S
C472        C473   1.398       .  A
C472        H476   1.085       .  S
C473        C474   1.402       .  A
C473        C781   1.486       .  S
C474        H477   1.083       .  S
C478        C479   1.408       .  A
C478        C483   1.410       .  A
C478        C571   1.479       .  S
C479        C480   1.401       .  A
C479        H484   1.083       .  S
C480        C481   1.398       .  A
C480        C795   1.481       .  S
C481        C482   1.398       .  A
C481        H485   1.085       .  S
C482        C483   1.401       .  A
C482        C767   1.484       .  S
C483        H486   1.083       .  S
C487        C488   1.411       .  A
C487        C492   1.409       .  A
C487        C651   1.479       .  S
C488        C489   1.402       .  A
C488        H493   1.083       .  S
C489        C490   1.398       .  A
C489        C770   1.486       .  S
C490        C491   1.398       .  A
C490        H494   1.085       .  S
C491        C492   1.401       .  A
C491        C753   1.482       .  S
C492        H495   1.083       .  S
C496        C497   1.410       .  A
C496        C501   1.409       .  A
C496        C610   1.479       .  S
C497        C498   1.401       .  A
C497        H502   1.083       .  S
C498        C499   1.397       .  A
C498        C784   1.485       .  S
C499        C500   1.398       .  A
C499        H503   1.085       .  S
C500        C501   1.402       .  A
C500        C756   1.484       .  S
C501        H504   1.083       .  S
O505        C508   1.268       .  A
O505       Cd510   2.498       .  S
C506        O515   1.265       .  A
C506        O511   1.267       .  A
O507        C513   1.267       .  A
O507       Cd510   2.471       .  S
C508        C584   1.463       .  S
C508        O516   1.263       .  A
C509        C522   1.465       .  S
C509        O514   1.266       .  A
C509        O512   1.264       .  A
Cd510       O517   2.443       .  S
Cd510       O516   2.412       .  S
Cd510       O515   2.446       .  S
Cd510       O511   2.469       .  S
Cd510       O514   2.475       .  S
Cd510       O512   2.453       .  S
C513        C535   1.463       .  S
C513        O517   1.264       .  A
O518        C521   1.266       .  A
O518       Cd523   2.486       .  S
C519        C597   1.467       .  S
C519        O528   1.262       .  A
C519        O524   1.268       .  A
O520        C526   1.264       .  A
O520       Cd523   2.466   1_455  S
C521        C688   1.480       .  S
C521        O529   1.264       .  A
C522        O527   1.265       .  A
C522        O525   1.265       .  A
Cd523       O530   2.478   1_655  S
Cd523       O529   2.451       .  S
Cd523       O528   2.418       .  S
Cd523       O524   2.517       .  S
Cd523       O527   2.473       .  S
Cd523       O525   2.460       .  S
C526        C578   1.467       .  S
C526        O530   1.265       .  A
O531        C534   1.268       .  A
O531       Cd536   2.515       .  S
C532        O541   1.264       .  A
C532        O537   1.267       .  A
O533        C539   1.265       .  A
O533       Cd536   2.455   1_545  S
C534        C612   1.467       .  S
C534        O542   1.262       .  A
C535        O540   1.265       .  A
C535        O538   1.265       .  A
Cd536       O543   2.470   1_565  S
Cd536       O542   2.421       .  S
Cd536       O541   2.454       .  S
Cd536       O537   2.478       .  S
Cd536       O540   2.468       .  S
Cd536       O538   2.449       .  S
C539        C548   1.464       .  S
C539        O543   1.265       .  A
O544        C547   1.269       .  A
O544       Cd549   2.520       .  S
C545        C679   1.479       .  S
C545        O554   1.263       .  A
C545        O550   1.268       .  A
O546        C552   1.265       .  A
O546       Cd549   2.459   1_455  S
C547        C625   1.467       .  S
C547        O555   1.262       .  A
C548        O553   1.264       .  A
C548        O551   1.266       .  A
Cd549       O556   2.451   1_655  S
Cd549       O555   2.412       .  S
Cd549       O554   2.436       .  S
Cd549       O550   2.493       .  S
Cd549       O553   2.452       .  S
Cd549       O551   2.471       .  S
C552        C561   1.462       .  S
C552        O556   1.265       .  A
O557        C560   1.269       .  A
O557       Cd562   2.493       .  S
C558        O567   1.265       .  A
C558        O563   1.268       .  A
O559        C565   1.267       .  A
O559       Cd562   2.468       .  S
C560        C636   1.460       .  S
C560        O568   1.262       .  A
C561        O566   1.267       .  A
C561        O564   1.264       .  A
Cd562       O569   2.447       .  S
Cd562       O568   2.397       .  S
Cd562       O567   2.419       .  S
Cd562       O563   2.482       .  S
Cd562       O566   2.462       .  S
Cd562       O564   2.443       .  S
C565        C574   1.464       .  S
C565        O569   1.265       .  A
O570        C573   1.268       .  A
O570       Cd575   2.515       .  S
C571        O580   1.265       .  A
C571        O576   1.267       .  A
O572        C578   1.265       .  A
O572       Cd575   2.465       .  S
C573        C649   1.467       .  S
C573        O581   1.263       .  A
C574        O579   1.265   1_545  A
C574        O577   1.264       .  A
Cd575       O582   2.475       .  S
Cd575       O581   2.423       .  S
Cd575       O580   2.458       .  S
Cd575       O576   2.472       .  S
Cd575       O579   2.471       .  S
Cd575       O577   2.456   1_565  S
C578        O582   1.265       .  A
O583        C586   1.268       .  A
O583       Cd588   2.476       .  S
C584        O593   1.263       .  A
C584        O589   1.269       .  A
O585        C591   1.267       .  A
O585       Cd588   2.473       .  S
C586        O594   1.265       .  A
C587        C604   1.465       .  S
C587        O592   1.267       .  A
C587        O590   1.264       .  A
Cd588       O595   2.448       .  S
Cd588       O594   2.438       .  S
Cd588       O593   2.408       .  S
Cd588       O589   2.498       .  S
Cd588       O592   2.472       .  S
Cd588       O590   2.451       .  S
C591        C617   1.465       .  S
C591        O595   1.265       .  A
O596        C599   1.268       .  A
O596       Cd601   2.510       .  S
C597        O606   1.262       .  A
C597        O602   1.269       .  A
O598        C604   1.265       .  A
O598       Cd601   2.465       .  S
C599        C670   1.479       .  S
C599        O607   1.263       .  A
C600        C656   1.462       .  S
C600        O605   1.264       .  A
C600        O603   1.265       .  A
Cd601       O608   2.458       .  S
Cd601       O607   2.418       .  S
Cd601       O606   2.412       .  S
Cd601       O602   2.518       .  S
Cd601       O605   2.448   1_655  S
Cd601       O603   2.464   1_655  S
C604        O608   1.266       .  A
O609        C612   1.268       .  A
O609       Cd614   2.514       .  S
C610        O619   1.265       .  A
C610        O615   1.267       .  A
O611        C617   1.265       .  A
O611       Cd614   2.473       .  S
C612        O620   1.263       .  A
C613        C630   1.465       .  S
C613        O618   1.265   1_545  A
C613        O616   1.265       .  A
Cd614       O621   2.458       .  S
Cd614       O620   2.423       .  S
Cd614       O619   2.455       .  S
Cd614       O615   2.475       .  S
Cd614       O618   2.458       .  S
Cd614       O616   2.468   1_565  S
C617        O621   1.265       .  A
O622        C625   1.268       .  A
O622       Cd627   2.520       .  S
C623        C661   1.479       .  S
C623        O632   1.264       .  A
C623        O628   1.267       .  A
O624        C630   1.264       .  A
O624       Cd627   2.458       .  S
C625        O633   1.262       .  A
C626        C639   1.467       .  S
C626        O631   1.265       .  A
C626        O629   1.265       .  A
Cd627       O634   2.471       .  S
Cd627       O633   2.416       .  S
Cd627       O632   2.437       .  S
Cd627       O628   2.498       .  S
Cd627       O631   2.474   1_655  S
Cd627       O629   2.465   1_655  S
C630        O634   1.265       .  A
O635        C638   1.267       .  A
O635       Cd640   2.463       .  S
C636        O645   1.263       .  A
C636        O641   1.268       .  A
O637        C643   1.267       .  A
O637       Cd640   2.474       .  S
C638        O646   1.266       .  A
C639        O644   1.267       .  A
C639        O642   1.265       .  A
Cd640       O647   2.441       .  S
Cd640       O646   2.433       .  S
Cd640       O645   2.403       .  S
Cd640       O641   2.491       .  S
Cd640       O644   2.476       .  S
Cd640       O642   2.457       .  S
C643        C652   1.463       .  S
C643        O647   1.264       .  A
O648        C651   1.267       .  A
O648       Cd653   2.479       .  S
C649        O658   1.262       .  A
C649        O654   1.269       .  A
O650        C656   1.265       .  A
O650       Cd653   2.451       .  S
C651        O659   1.264       .  A
C652        O657   1.265   1_545  A
C652        O655   1.266       .  A
Cd653       O660   2.462       .  S
Cd653       O659   2.453       .  S
Cd653       O658   2.420       .  S
Cd653       O654   2.516       .  S
Cd653       O657   2.465       .  S
Cd653       O655   2.450   1_565  S
C656        O660   1.265       .  A
C661        C662   1.412       .  A
C661        C666   1.404       .  A
C662        C663   1.417       .  A
C662        H667   1.079       .  S
C663        C664   1.410   1_655  A
C663        C739   1.519       .  S
C664        C665   1.395       .  A
C664        H668   1.082       .  S
C665        C666   1.394   1_455  A
C665        C725   1.486       .  S
C666        H669   1.083       .  S
C670        C671   1.412       .  A
C670        C675   1.406       .  A
C671        C672   1.416       .  A
C671        H676   1.080       .  S
C672        C673   1.409       .  A
C672        C742   1.514       .  S
C673        C674   1.394       .  A
C673        H677   1.083       .  S
C674        C675   1.393       .  A
C674        C711   1.488       .  S
C675        H678   1.083       .  S
C679        C680   1.409       .  A
C679        C684   1.410       .  A
C680        C681   1.403       .  A
C680        H685   1.083       .  S
C681        C682   1.400       .  A
C681        C697   1.484       .  S
C682        C683   1.398       .  A
C682        H686   1.085       .  S
C683        C684   1.399       .  A
C683        C728   1.483       .  S
C684        H687   1.083       .  S
C688        C689   1.408       .  A
C688        C693   1.410       .  A
C689        C690   1.399       .  A
C689        H694   1.083       .  S
C690        C691   1.398       .  A
C690        C714   1.484       .  S
C691        C692   1.403       .  A
C691        H695   1.084       .  S
C692        C693   1.407       .  A
C692        C700   1.495       .  S
C693        H696   1.083       .  S
C697        C698   1.410       .  A
C697        C702   1.410       .  A
C698        C699   1.408       .  A
C698        C703   1.452       .  S
C699        C700   1.416       .  A
C699        C706   1.451       .  S
C700        C701   1.417       .  A
C701        C702   1.414       .  A
C701        C704   1.450   1_655  S
C702        C705   1.450   1_655  S
C703        N710   1.157       .  T
C704        N709   1.157       .  T
C705        N707   1.157       .  T
C706        N708   1.157       .  T
C711        C712   1.418       .  A
C711        C716   1.411       .  A
C712        C713   1.409       .  A
C712        C717   1.452       .  S
C715        C716   1.410       .  A
C716        C719   1.450       .  S
C717        N724   1.157   1_655  T
C718        N723   1.157       .  T
C719        N721   1.157       .  T
C720        N722   1.157       .  T
C725        C726   1.416   1_455  A
C725        C730   1.411       .  A
C726        C727   1.407       .  A
C726        C731   1.453       .  S
C728        C729   1.411   1_655  A
C729        C732   1.449       .  S
C730        C733   1.449       .  S
C731        N738   1.157       .  T
C732        N737   1.157       .  T
C733        N735   1.157       .  T
C734        N736   1.157       .  T
C739        C740   1.421       .  A
C739        C744   1.425       .  A
C740        C741   1.398       .  A
C740        C745   1.454       .  S
C741        C742   1.417       .  A
C741        C748   1.455       .  S
C742        C743   1.421       .  A
C743        C744   1.423       .  A
C743        C746   1.449       .  S
C744        C747   1.449       .  S
C745        N752   1.158       .  T
C746        N751   1.158       .  T
C747        N749   1.158       .  T
C748        N750   1.158       .  T
C753        C754   1.411       .  A
C753        C758   1.411       .  A
C754        C755   1.408       .  A
C754        C759   1.451       .  S
C755        C756   1.412       .  A
C755        C762   1.451       .  S
C756        C757   1.413       .  A
C757        C758   1.411       .  A
C757        C760   1.451   1_565  S
C758        C761   1.450   1_565  S
C759        N766   1.157       .  T
C760        N765   1.157       .  T
C761        N763   1.157       .  T
C762        N764   1.157       .  T
C768        C769   1.413       .  A
C769        C770   1.413       .  A
C769        C776   1.450   1_565  S
C770        C771   1.412       .  A
C771        C772   1.408       .  A
C771        C774   1.450       .  S
C773        N780   1.157       .  T
C774        N779   1.157       .  T
C775        N777   1.157       .  T
C776        N778   1.157       .  T
C782        C783   1.407       .  A
C783        C784   1.411       .  A
C783        C790   1.452   1_565  S
C784        C785   1.412       .  A
C785        C786   1.413       .  A
C785        C788   1.450       .  S
C787        N794   1.157       .  T
C788        N793   1.157       .  T
C789        N791   1.157       .  T
C790        N792   1.157       .  T
C795        C796   1.411       .  A
C795        C800   1.410       .  A
C796        C797   1.409       .  A
C796        C801   1.451       .  S
C797        C798   1.410       .  A
C797        C804   1.450       .  S
C798        C799   1.412       .  A
C799        C800   1.410       .  A
C799        C802   1.451   1_565  S
C800        C803   1.450   1_565  S
C801        N808   1.157       .  T
C802        N807   1.157       .  T
C803        N805   1.157       .  T
C804        N806   1.157       .  T
C809        C810   1.411       .  A
C809        C814   1.410       .  A
C810        C811   1.414       .  A
C810        C815   1.449       .  S
C811        C812   1.412       .  A
C811        C818   1.450       .  S
C812        C813   1.410       .  A
C813        C814   1.406       .  A
C813        C816   1.451       .  S
C814        C817   1.449       .  S
C815        N822   1.157       .  T
C816        N821   1.157       .  T
C817        N819   1.157       .  T
C818        N820   1.157       .  T
C823        C824   1.413       .  A
C823        C828   1.410       .  A
C824        C825   1.410       .  A
C824        C829   1.450       .  S
C826        C827   1.410       .  A
C827        C830   1.450       .  S
C828        C831   1.450       .  S
C829        N836   1.157       .  T
C830        N835   1.157       .  T
C831        N833   1.157       .  T
C832        N834   1.157       .  T
C838        C839   1.414       .  A
C839        C840   1.416       .  A
C839        C846   1.451       .  S
C840        C841   1.415       .  A
C841        C842   1.406       .  A
C841        C844   1.449       .  S
C843        N850   1.157       .  T
C844        N849   1.156       .  T
C845        N847   1.157       .  T
C846        N848   1.157       .  T
C851        C852   1.415       .  A
C851        C856   1.415       .  A
C852        C853   1.415       .  A
C852        C857   1.450       .  S
C853        C854   1.412       .  A
C853        C860   1.450       .  S
C854        C855   1.411       .  A
C855        C856   1.407       .  A
C855        C858   1.453       .  S
C856        C859   1.451       .  S
C857        N864   1.157       .  T
C858        N863   1.157       .  T
C859        N861   1.157       .  T
C860        N862   1.157       .  T
