geometry optimzed in LAMMPS
_audit_creation_date              2020-11-30 
_audit_creation_method            'lammps2cif' 
_symmetry_space_group_name_H-M    'P1' 
_symmetry_Int_Tables_number       1 
_symmetry_cell_setting            triclinic 
loop_ 
_symmetry_equiv_pos_as_xyz 
  x,y,z 
_cell_length_a                    40.45963045 
_cell_length_b                    40.400841658231066 
_cell_length_c                    29.772674696042003 
_cell_angle_alpha                 89.68965877416778 
_cell_angle_beta                  90.22688448650767 
_cell_angle_gamma                 121.02947858449801 
loop_ 
_atom_site_label 
_atom_site_type_symbol 
_atom_site_fract_x 
_atom_site_fract_y 
_atom_site_fract_z 
_atom_site_charge 
O1          O  0.50385476  0.59945290  0.39599018    -0.85300
O2          O  0.45410591  0.60115755  0.33475298    -0.82400
C3          C  0.47471336  0.61629275  0.30020459     0.98100
O4          O  0.48752299  0.59847338  0.27877452    -0.82400
O5          O  0.50893402  0.54533405  0.26075321    -0.85100
C6          C  0.54062216  0.55744779  0.28129851     1.02600
O7          O  0.54119427  0.55627395  0.32353039    -0.77800
O8          O  0.51931044  0.55589496  0.41110152    -0.78000
C9          C  0.52465943  0.58944682  0.41632420     1.02600
O10         O  0.44445800  0.52540481  0.42825650    -0.85300
O11         O  0.39757784  0.52359761  0.36042425    -0.82400
C12         C  0.38507952  0.52306789  0.32150550     0.98100
O13         O  0.40822281  0.53683652  0.28866209    -0.82400
O14         O  0.43099702  0.48444026  0.27826041    -0.85000
C15         C  0.44645633  0.46492096  0.28667855     1.02600
O16         O  0.47683235  0.47917554  0.31038541    -0.77900
O17         O  0.45113476  0.48127307  0.39454875    -0.78000
C18         C  0.43720301  0.49103571  0.42587501     1.02600
Cr19       Cr  0.45133649  0.56098781  0.37709918     1.93700
Cr20       Cr  0.45972082  0.54126866  0.28083533     1.93200
Cr21       Cr  0.49525798  0.51973084  0.35851355     1.39100
O22         O  0.46893442  0.54076657  0.33872329    -1.23100
O23         O  0.40255113  0.88181209  0.38137204    -0.85300
O24         O  0.40346349  0.84047303  0.30768842    -0.82400
C25         C  0.38784424  0.84945583  0.27687326     0.98100
O26         O  0.40483188  0.88311061  0.26076021    -0.82400
O27         O  0.45693376  0.96117743  0.25266116    -0.85100
C28         C  0.44436290  0.97728912  0.27788242     1.02600
O29         O  0.44469729  0.97382553  0.31991525    -0.77800
O30         O  0.44375773  0.94159347  0.40172678    -0.78000
C31         C  0.41113223  0.91075990  0.40559339     1.02600
O32         O  0.47672858  0.89713480  0.40728790    -0.85300
O33         O  0.48171164  0.86347795  0.32964722    -0.82400
C34         C  0.48289002  0.85706564  0.28846288     0.98100
O35         O  0.46764265  0.86856447  0.25998074    -0.82400
O36         O  0.51811197  0.94596167  0.26097087    -0.85000
C37         C  0.53678325  0.98033364  0.27429443     1.02600
O38         O  0.52311732  0.99223641  0.30419216    -0.77900
O39         O  0.51965007  0.95497239  0.38334476    -0.78000
C40         C  0.50982163  0.92706363  0.40990810     1.02600
Cr41       Cr  0.44252460  0.87397094  0.35403095     1.93700
Cr42       Cr  0.46175784  0.91490936  0.26324823     1.93200
Cr43       Cr  0.48134209  0.96226197  0.35021256     1.39100
O44         O  0.46177437  0.91719677  0.32261211    -1.23100
O45         O  0.08374823  0.52679162  0.43474674    -0.85300
O46         O  0.13276097  0.52942716  0.37095205    -0.82400
C47         C  0.14628942  0.52897859  0.33327056     0.98100
O48         O  0.13545298  0.53867687  0.29817544    -0.82400
O49         O  0.06084744  0.48082198  0.28668299    -0.85100
C50         C  0.02541237  0.45898589  0.29382790     1.02600
O51         O  0.00708768  0.47135332  0.31532963    -0.77800
O52         O  0.03511786  0.47817007  0.40098344    -0.78000
C53         C  0.05892688  0.49114282  0.43307792     1.02600
O54         O  0.09214950  0.59631465  0.39792297    -0.85300
O55         O  0.14816732  0.60352740  0.34065607    -0.82400
C56         C  0.14188634  0.61599429  0.30452642     0.98100
O57         O  0.11253454  0.59441886  0.28115861    -0.82400
O58         O  0.03836031  0.53582398  0.26279438    -0.85000
C59         C  0.01604234  0.54520981  0.28101416     1.02600
O60         O  0.01295903  0.54455589  0.32326504    -0.77900
O61         O  0.03393388  0.54829193  0.41286872    -0.78000
C62         C  0.06103534  0.58270501  0.41917112     1.02600
Cr63       Cr  0.11149817  0.56234869  0.38306589     1.93700
Cr64       Cr  0.08582187  0.53744255  0.28642222     1.93200
Cr65       Cr  0.02577826  0.51251573  0.36181454     1.39100
O66         O  0.07432864  0.53768638  0.34356208    -1.23100
O67         O  0.40402877  0.17720889  0.10634882    -0.85300
O68         O  0.45194106  0.17867030  0.03936964    -0.82400
C69         C  0.46715846  0.18274900  0.00128462     0.98100
O70         O  0.45774894  0.19674367  0.96896332    -0.82400
O71         O  0.38187449  0.14293550  0.95298279    -0.85100
C72         C  0.34594750  0.12246699  0.95829761     1.02600
O73         O  0.32853258  0.13361800  0.98389408    -0.77800
O74         O  0.35321938  0.13376475  0.07002801    -0.78000
C75         C  0.37676042  0.14269066  0.10198867     1.02600
O76         O  0.42071060  0.25162016  0.07660373    -0.85300
O77         O  0.47397796  0.25641549  0.01806336    -0.82400
C78         C  0.46861820  0.27423341  0.98654084     0.98100
O79         O  0.43893904  0.25649886  0.96238932    -0.82400
O80         O  0.36492123  0.20242509  0.93728794    -0.85000
C81         C  0.34433703  0.21307242  0.95703440     1.02600
O82         O  0.34028373  0.20962179  0.99904321    -0.77900
O83         O  0.35964300  0.20809466  0.08730971    -0.78000
C84         C  0.38836165  0.24201972  0.09287722     1.02600
Cr85       Cr  0.43479637  0.21438972  0.05730263     1.93700
Cr86       Cr  0.40992388  0.19933089  0.95958583     1.93200
Cr87       Cr  0.34888735  0.17281680  0.03402145     1.39100
O88         O  0.39764604  0.19533487  0.01692377    -1.23100
O89         O  0.84250211  0.27087447  0.06101249    -0.85300
O90         O  0.79773737  0.28076805  0.99960565    -0.82400
C91         C  0.81825431  0.29442333  0.96478911     0.98100
O92         O  0.82784398  0.27432843  0.94253385    -0.82400
O93         O  0.84374841  0.21730138  0.92491631    -0.85100
C94         C  0.87386307  0.22474740  0.94661977     1.02600
O95         O  0.87305669  0.22140226  0.98889586    -0.77800
O96         O  0.84953847  0.22173378  0.07587341    -0.78000
C97         C  0.85924317  0.25654207  0.08207545     1.02600
O98         O  0.77682671  0.19996779  0.09054463    -0.85300
O99         O  0.73496913  0.20568226  0.02265649    -0.82400
C100        C  0.72379788  0.20710858  0.98364652     0.98100
O101        O  0.74681735  0.21799636  0.95063725    -0.82400
O102        O  0.76338487  0.16049458  0.93846641    -0.85000
C103        C  0.77707994  0.13917528  0.94567721     1.02600
O104        O  0.80468759  0.14949014  0.97282050    -0.77900
O105        O  0.77687974  0.15244009  0.05604068    -0.78000
C106        C  0.76431559  0.16430268  0.08686301     1.02600
Cr107      Cr  0.78922151  0.23771968  0.04050901     1.93700
Cr108      Cr  0.79603022  0.21726449  0.94359276     1.93200
Cr109      Cr  0.82442814  0.18822042  0.02207356     1.39100
O110        O  0.80349351  0.21460620  0.00178763    -1.23100
O111        O  0.76278942  0.57116684  0.08099773    -0.85300
O112        O  0.71779065  0.53425495  0.00766321    -0.82400
C113        C  0.70712389  0.52544805  0.96748696     0.98100
O114        O  0.73179422  0.53705510  0.93625678    -0.82400
O115        O  0.76101069  0.61536048  0.93412868    -0.85100
C116        C  0.77970535  0.65046226  0.94517922     1.02600
O117        O  0.80706787  0.66236257  0.97332699    -0.77800
O118        O  0.77541826  0.62692697  0.05476805    -0.78000
C119        C  0.75848558  0.59984685  0.08298893     1.02600
O120        O  0.81940652  0.55534240  0.04934803    -0.85300
O121        O  0.77085633  0.51108267  0.98115912    -0.82400
C122        C  0.79354297  0.51887758  0.94845217     0.98100
O123        O  0.80925417  0.55169661  0.93008888    -0.82400
O124        O  0.83674271  0.62936070  0.92022288    -0.85000
C125        C  0.86751262  0.64589628  0.94299612     1.02600
O126        O  0.86659965  0.64414541  0.98528634    -0.77900
O127        O  0.83954993  0.61489883  0.06979953    -0.78000
C128        C  0.84168308  0.58468529  0.07241509     1.02600
Cr129      Cr  0.76937595  0.54609546  0.02722282     1.93700
Cr130      Cr  0.78523000  0.58370134  0.93464236     1.93200
Cr131      Cr  0.82002532  0.63373328  0.01902521     1.39100
O132        O  0.79176413  0.58797546  0.99356466    -1.23100
O133        O  0.76948561  0.85645339  0.73925094    -0.85300
O134        O  0.81938105  0.90444129  0.67572135    -0.82400
C135        C  0.81492291  0.88088540  0.64521363     0.98100
O136        O  0.78386168  0.86377229  0.62322784    -0.82400
O137        O  0.70777892  0.83440237  0.60080093    -0.85100
C138        C  0.68876501  0.80402618  0.62399137     1.02600
O139        O  0.68598934  0.80563134  0.66592869    -0.77800
O140        O  0.70798233  0.83426711  0.75141908    -0.78000
C141        C  0.73801225  0.83225436  0.75723027     1.02600
O142        O  0.74882058  0.91238401  0.76180264    -0.85300
O143        O  0.79308536  0.95701922  0.69034260    -0.82400
C144        C  0.80579744  0.96629735  0.65079531     0.98100
O145        O  0.79676410  0.94048394  0.62146721    -0.82400
O146        O  0.71981921  0.91054194  0.60857609    -0.85000
C147        C  0.68427481  0.89342889  0.61702451     1.02600
O148        O  0.66921288  0.86482152  0.64371155    -0.77900
O149        O  0.69563676  0.89709233  0.72577668    -0.78000
C150        C  0.71993936  0.91597305  0.75577635     1.02600
Cr151      Cr  0.77970573  0.90577975  0.71417915     1.93700
Cr152      Cr  0.75117559  0.88677212  0.61774969     1.93200
Cr153      Cr  0.69324736  0.85257789  0.69555078     1.39100
O154        O  0.74123588  0.88149024  0.67578117    -1.23100
O155        O  0.15906534  0.92637052  0.72240531    -0.85300
O156        O  0.11370655  0.93284277  0.65875587    -0.82400
C157        C  0.13669610  0.94945080  0.62641445     0.98100
O158        O  0.15043485  0.93234729  0.60526947    -0.82400
O159        O  0.16907405  0.87715983  0.58465850    -0.85100
C160        C  0.19938980  0.88555908  0.60641716     1.02600
O161        O  0.19829647  0.88341397  0.64869626    -0.77800
O162        O  0.17310935  0.88167836  0.73588386    -0.78000
C163        C  0.17815173  0.91482774  0.74386130     1.02600
O164        O  0.09708338  0.85245663  0.74881887    -0.85300
O165        O  0.05486709  0.85478526  0.67805047    -0.82400
C166        C  0.04467347  0.85775892  0.63905297     0.98100
O167        O  0.06973665  0.87291591  0.60822419    -0.82400
O168        O  0.08967076  0.81909930  0.59672723    -0.85000
C169        C  0.10271450  0.79754476  0.60534287     1.02600
O170        O  0.13144267  0.80862661  0.63130552    -0.77900
O171        O  0.10380080  0.80866248  0.71479177    -0.78000
C172        C  0.08916542  0.81795482  0.74580860     1.02600
Cr173      Cr  0.10759208  0.89023265  0.69921108     1.93700
Cr174      Cr  0.12043810  0.87521251  0.60297023     1.93200
Cr175      Cr  0.15008454  0.84746481  0.68124788     1.39100
O176        O  0.12639032  0.87112318  0.66109530    -1.23100
O177        O  0.07546619  0.22539246  0.71702680    -0.85300
O178        O  0.07563443  0.18398955  0.64429596    -0.82400
C179        C  0.05995221  0.19480272  0.61567666     0.98100
O180        O  0.07870607  0.22799510  0.59834713    -0.82400
O181        O  0.13374586  0.30546489  0.59095376    -0.85100
C182        C  0.12167189  0.32219362  0.61610724     1.02600
O183        O  0.12136417  0.31809588  0.65810977    -0.77800
O184        O  0.11814766  0.28384411  0.73978973    -0.78000
C185        C  0.08478609  0.25377124  0.74239554     1.02600
O186        O  0.14844412  0.23790518  0.74519580    -0.87100
O187        O  0.15249247  0.20401129  0.66763093    -0.82400
C188        C  0.15305002  0.19667210  0.62674677     0.98100
O189        O  0.13918240  0.20935962  0.59777550    -0.82400
O190        O  0.19254973  0.28639388  0.59994520    -0.85000
C191        C  0.21246905  0.32017800  0.61498832     1.02600
O192        O  0.19832503  0.33316543  0.64285879    -0.77900
O193        O  0.19326732  0.29443910  0.72095567    -0.78000
C194        C  0.18249029  0.26648559  0.74766244     1.02600
Cr195      Cr  0.11454353  0.21598900  0.69120240     1.93700
Cr196      Cr  0.13589084  0.25745937  0.60098948     1.93200
Cr197      Cr  0.15620490  0.30411220  0.68841172     1.39100
O198        O  0.13542765  0.25936519  0.66022846    -1.23100
C199        C  0.16590135  0.16973037  0.61357531    -0.12000
C200        C  0.18689974  0.15984701  0.64331850     0.03500
C201        C  0.18934235  0.12721224  0.63488182    -0.12500
C202        C  0.17225663  0.10470563  0.59659699     0.18400
C203        C  0.15595094  0.11746686  0.56404607    -0.09500
C204        C  0.15278154  0.14970945  0.57270168    -0.02500
H205        H  0.20241933  0.11791394  0.65989185     0.04900
C206        C  0.16428533  0.06467475  0.59651447     0.20400
H207        H  0.13771506  0.15744837  0.54863867     0.10100
C208        C  0.12573545  0.03480347  0.60061179    -0.15900
C209        C  0.11626829  0.99694576  0.60875301     0.03100
C210        C  0.14573624  0.98826892  0.61275034    -0.11200
C211        C  0.18427333  0.01772021  0.60635122    -0.01200
C212        C  0.19375186  0.05591409  0.59882908    -0.06400
H213        H  0.10285775  0.04126428  0.59936999     0.06100
H214        H  0.20711930  0.01132486  0.60922308     0.09500
Br215      Br  0.13554264  0.09021083  0.50867906    -0.06100
Br216      Br  0.21189651  0.18847631  0.69682610    -0.03000
Br217      Br  0.06248491  0.95851023  0.61407717    -0.00200
Br218      Br  0.24709365  0.09519165  0.59302991    -0.04600
C219        C  0.01962204  0.16761556  0.60348397    -0.12000
C220        C  0.99059662  0.17621009  0.61183382     0.03500
C221        C  0.95194109  0.14626489  0.61307008    -0.12500
C222        C  0.94200008  0.10803069  0.60520070     0.18400
C223        C  0.97064963  0.10014935  0.59230790    -0.09500
C224        C  0.00922231  0.12983287  0.59203197    -0.02500
H225        H  0.92993511  0.15241645  0.62304630     0.04900
C226        C  0.90355488  0.07607340  0.61812707     0.20400
H227        H  0.03137188  0.12299525  0.58545975     0.10100
C228        C  0.87550936  0.05604230  0.58517341    -0.15900
C229        C  0.84167129  0.02132545  0.59568984     0.03100
C230        C  0.83558914  0.00654331  0.64003788    -0.11200
C231        C  0.86253318  0.02836613  0.67350774    -0.01200
C232        C  0.89657270  0.06252808  0.66273875    -0.06400
H233        H  0.88083048  0.06644599  0.55080749     0.06100
H234        H  0.85868385  0.01731703  0.70752500     0.09500
Br235      Br  0.95877247  0.04862685  0.57947289    -0.06100
Br236      Br  0.00258156  0.22723423  0.62744020    -0.03000
Br237      Br  0.80558988  0.99505368  0.54781417    -0.00200
Br238      Br  0.93468401  0.08734335  0.70904828    -0.04600
C239        C  0.00447711  0.84780977  0.63057294    -0.12000
C240        C  0.97561182  0.83107438  0.66412408     0.03500
C241        C  0.94162617  0.83161189  0.65899932    -0.12500
C242        C  0.93540514  0.84771800  0.62061065     0.18400
C243        C  0.96173061  0.86010263  0.58496130    -0.09500
C244        C  0.99594028  0.85989257  0.58996741    -0.02500
H245        H  0.92080446  0.82124441  0.68612080     0.04900
C246        C  0.90457694  0.85660654  0.62167180     0.20400
H247        H  0.01692955  0.87166647  0.56308384     0.10100
C248        C  0.91420558  0.89392068  0.63405978    -0.15900
C249        C  0.88559351  0.90283722  0.64093941     0.03100
C250        C  0.84640702  0.87382808  0.63530878    -0.11200
C251        C  0.83715277  0.83681354  0.62163188    -0.01200
C252        C  0.86585604  0.82799924  0.61490546    -0.06400
H253        H  0.94417391  0.91599348  0.63940548     0.06100
H254        H  0.80738139  0.81413112  0.61795518     0.09500
Br255      Br  0.95293053  0.87955735  0.53016708    -0.06100
Br256      Br  0.98059907  0.80818993  0.71843239    -0.03000
Br257      Br  0.90230791  0.95518643  0.65724608    -0.00200
Br258      Br  0.85109517  0.77656488  0.59747731    -0.04600
C259        C  0.77074241  0.67786375  0.92276307    -0.12000
C260        C  0.79897265  0.71735581  0.91605156     0.03500
C261        C  0.78984763  0.74100549  0.89102929    -0.12500
C262        C  0.75318028  0.72619991  0.87210700     0.18400
C263        C  0.72494963  0.68720660  0.87888724    -0.09500
C264        C  0.73375309  0.66344293  0.90415107    -0.02500
H265        H  0.81185060  0.77093983  0.88516374     0.04900
C266        C  0.74592932  0.75130641  0.84273981     0.20400
H267        H  0.71170506  0.63332221  0.90854017     0.10100
C268        C  0.75368194  0.75255299  0.79677485    -0.15900
C269        C  0.74967509  0.77781180  0.76824550     0.03100
C270        C  0.73725951  0.80200267  0.78558908    -0.11200
C271        C  0.72830362  0.79989707  0.83135720    -0.01200
C272        C  0.73301141  0.77501985  0.86007748    -0.06400
H273        H  0.76359848  0.73432862  0.78324676     0.06100
H274        H  0.71934706  0.81882813  0.84509413     0.09500
Br275      Br  0.67448062  0.66511951  0.85294057    -0.06100
Br276      Br  0.85145492  0.74057798  0.93628485    -0.03000
Br277      Br  0.76138822  0.77815735  0.70575135    -0.00200
Br278      Br  0.72327949  0.77545436  0.92295026    -0.04600
C279        C  0.90401178  0.66998524  0.91904633    -0.12000
C280        C  0.93792020  0.66949982  0.92863279     0.03500
C281        C  0.97123901  0.69242968  0.90305209    -0.12500
C282        C  0.97098244  0.71580955  0.86819693     0.18400
C283        C  0.93712681  0.71624268  0.85899280    -0.09500
C284        C  0.90406345  0.69332661  0.88407757    -0.02500
H285        H  0.99719585  0.69178274  0.91002264     0.04900
C286        C  0.00578948  0.73974951  0.84112362     0.20400
H287        H  0.87816972  0.69389611  0.87629475     0.10100
C288        C  0.01011361  0.72533402  0.80031382    -0.15900
C289        C  0.03835145  0.74965423  0.76939396     0.03100
C290        C  0.06287885  0.78930969  0.77940091    -0.11200
C291        C  0.05967282  0.80290176  0.82162933    -0.01200
C292        C  0.03141500  0.77852103  0.85228574    -0.06400
H293        H  0.99002993  0.69550227  0.79146123     0.06100
H294        H  0.07835209  0.83304214  0.83030087     0.09500
Br295      Br  0.93441675  0.74775424  0.81263086    -0.06100
Br296      Br  0.93929471  0.63601038  0.97351204    -0.03000
Br297      Br  0.03861436  0.72736292  0.71277496    -0.00200
Br298      Br  0.02689444  0.79991725  0.90766505    -0.04600
C299        C  0.05645105  0.25112962  0.77575206    -0.12000
C300        C  0.06744772  0.26875059  0.81845714     0.03500
C301        C  0.03924833  0.26552198  0.84839380    -0.12500
C302        C  0.99998201  0.24415247  0.83702934     0.18400
C303        C  0.98896159  0.22530528  0.79522615    -0.09500
C304        C  0.01703326  0.22901821  0.76505987    -0.02500
H305        H  0.04795278  0.27957142  0.88079011     0.04900
C306        C  0.97073655  0.24254424  0.86822325     0.20400
H307        H  0.00791001  0.21450197  0.73296220     0.10100
C308        C  0.94998182  0.26008516  0.85524684    -0.15900
C309        C  0.91954383  0.25622069  0.88137266     0.03100
C310        C  0.90933552  0.23444086  0.92155411    -0.11200
C311        C  0.93169389  0.21885264  0.93589567    -0.01200
C312        C  0.96211035  0.22264119  0.90953566    -0.06400
H313        H  0.95704905  0.27625525  0.82404744     0.06100
H314        H  0.92434046  0.20206526  0.96663834     0.09500
Br315      Br  0.93580827  0.19294661  0.77836718    -0.06100
Br316      Br  0.11988660  0.29484466  0.83934854    -0.03000
Br317      Br  0.89379675  0.28227028  0.86086420    -0.00200
Br318      Br  0.98921557  0.19792381  0.92979092    -0.04600
C319        C  0.71653753  0.94445420  0.78210565    -0.12000
C320        C  0.70052108  0.93625168  0.82544893     0.03500
C321        C  0.70406227  0.96633425  0.85217156    -0.12500
C322        C  0.72347870  0.00441289  0.83585115     0.18400
C323        C  0.73740949  0.01202901  0.79147418    -0.09500
C324        C  0.73379092  0.98204807  0.76493412    -0.02500
H325        H  0.69352181  0.96038271  0.88640957     0.04900
C326        C  0.73504833  0.03659417  0.86714928     0.20400
H327        H  0.74614228  0.98842013  0.73150059     0.10100
C328        C  0.77363532  0.05727593  0.88081507    -0.15900
C329        C  0.78774142  0.09048380  0.90662732     0.03100
C330        C  0.76257794  0.10306551  0.92029204    -0.11200
C331        C  0.72357172  0.08175294  0.90732062    -0.01200
C332        C  0.70969809  0.04862123  0.88084873    -0.06400
H333        H  0.79330814  0.04830699  0.86968500     0.06100
H334        H  0.70399027  0.09116405  0.91728239     0.09500
Br335      Br  0.76389225  0.06337485  0.76683590    -0.06100
Br336      Br  0.67554950  0.88495596  0.84985181    -0.03000
Br337      Br  0.84247334  0.11908195  0.91740441    -0.00200
Br338      Br  0.65673127  0.02179610  0.86234496    -0.04600
C339        C  0.82858590  0.33339641  0.94968004    -0.12000
C340        C  0.82277165  0.34106454  0.90490206     0.03500
C341        C  0.82400214  0.37557152  0.89457505    -0.12500
C342        C  0.83111503  0.40256942  0.92825470     0.18400
C343        C  0.83930283  0.39595719  0.97222398    -0.09500
C344        C  0.83815238  0.36169228  0.98254305    -0.02500
H345        H  0.81665855  0.38008590  0.86097466     0.04900
C346        C  0.82107014  0.43235250  0.92063743     0.20400
H347        H  0.84238107  0.35606753  0.01708665     0.10100
C348        C  0.78271904  0.42161587  0.92818492    -0.15900
C349        C  0.77272269  0.44945931  0.93462547     0.03100
C350        C  0.80143697  0.48906644  0.93269742    -0.11200
C351        C  0.83922406  0.49974462  0.92048624    -0.01200
C352        C  0.84924748  0.47157344  0.91489057    -0.06400
H353        H  0.76091297  0.39138431  0.93241528     0.06100
H354        H  0.86151935  0.52997177  0.91849632     0.09500
Br355      Br  0.84703407  0.43056423  0.02058459    -0.06100
Br356      Br  0.80729044  0.30337759  0.85810436    -0.03000
Br357      Br  0.71959732  0.43099814  0.94804549    -0.00200
Br358      Br  0.90197872  0.48769373  0.90305735    -0.04600
C359        C  0.32334480  0.22724635  0.92956731    -0.12000
C360        C  0.30775682  0.24875438  0.94743781     0.03500
C361        C  0.28638431  0.25908801  0.91966011    -0.12500
C362        C  0.28058733  0.24879982  0.87415798     0.18400
C363        C  0.29709835  0.22861072  0.85603924    -0.09500
C364        C  0.31815137  0.21807297  0.88355419    -0.02500
H365        H  0.27399261  0.27499047  0.93363401     0.04900
C366        C  0.25572392  0.25735998  0.84608039     0.20400
H367        H  0.32974618  0.20171511  0.86882938     0.10100
C368        C  0.27237705  0.28595875  0.81273624    -0.15900
C369        C  0.24942403  0.29071344  0.78105531     0.03100
C370        C  0.20874892  0.26637826  0.78266524    -0.11200
C371        C  0.19237746  0.23904434  0.81769593    -0.01200
C372        C  0.21539764  0.23436501  0.84903117    -0.06400
H373        H  0.30350065  0.30361785  0.81028074     0.06100
H374        H  0.16137521  0.22029053  0.82017595     0.09500
Br375      Br  0.29015605  0.21312428  0.79420732    -0.06100
Br376      Br  0.31544629  0.26621295  0.00857584    -0.03000
Br377      Br  0.27613987  0.32909637  0.73526280    -0.00200
Br378      Br  0.19045661  0.19426626  0.89332683    -0.04600
C379        C  0.20419166  0.93994000  0.78023866    -0.12000
C380        C  0.22823983  0.93130832  0.80635088     0.03500
C381        C  0.25119842  0.95666530  0.84058461    -0.12500
C382        C  0.25033067  0.99023662  0.84954230     0.18400
C383        C  0.22641382  0.99867645  0.82397360    -0.09500
C384        C  0.20375120  0.97379990  0.78999770    -0.02500
H385        H  0.27024587  0.95054060  0.85979054     0.04900
C386        C  0.27748368  0.01908623  0.88165929     0.20400
H387        H  0.18571968  0.98141731  0.77101328     0.10100
C388        C  0.31290376  0.04832384  0.86494345    -0.15900
C389        C  0.33573970  0.08196252  0.88943410     0.03100
C390        C  0.32385790  0.08612928  0.93265712    -0.11200
C391        C  0.28903222  0.05580192  0.95021344    -0.01200
C392        C  0.26570039  0.02257598  0.92486122    -0.06400
H393        H  0.32131770  0.04629625  0.83101746     0.06100
H394        H  0.27931075  0.05846972  0.98311000     0.09500
Br395      Br  0.22488796  0.04493147  0.83304125    -0.06100
Br396      Br  0.23226242  0.88651156  0.79697077    -0.03000
Br397      Br  0.37932255  0.12286684  0.85830992    -0.00200
Br398      Br  0.21671686  0.98402524  0.94877747    -0.04600
C399        C  0.49841304  0.31533477  0.97834026    -0.12000
C400        C  0.49653013  0.33804819  0.94305113     0.03500
C401        C  0.52707253  0.37610796  0.93676170    -0.12500
C402        C  0.55923175  0.39206487  0.96524034     0.18400
C403        C  0.56062270  0.37010936  0.00104855    -0.09500
C404        C  0.53052851  0.33234360  0.00734740    -0.02500
H405        H  0.52608853  0.39312632  0.90911172     0.04900
C406        C  0.59288120  0.43044813  0.95593031     0.20400
H407        H  0.53283936  0.31608601  0.03496281     0.10100
C408        C  0.59983659  0.46161198  0.98314036    -0.15900
C409        C  0.63639231  0.49504918  0.98425127     0.03100
C410        C  0.66632345  0.49728207  0.95785359    -0.11200
C411        C  0.65777999  0.46804819  0.92658921    -0.01200
C412        C  0.62151676  0.43439241  0.92605456    -0.06400
H413        H  0.57762701  0.45885170  0.00575554     0.06100
H414        H  0.68030005  0.46972406  0.90541387     0.09500
Br415      Br  0.60404305  0.38982337  0.04111662    -0.06100
Br416      Br  0.45400694  0.31963586  0.90187486    -0.03000
Br417      Br  0.64434174  0.53634421  0.02300643    -0.00200
Br418      Br  0.61406835  0.39255482  0.88857329    -0.04600
C419        C  0.68397382  0.19789082  0.97772256    -0.12000
C420        C  0.67576650  0.22554880  0.96093294     0.03500
C421        C  0.63792984  0.21788731  0.96210661    -0.12500
C422        C  0.60820590  0.18311135  0.98018978     0.18400
C423        C  0.61615988  0.15496780  0.99553184    -0.09500
C424        C  0.65396548  0.16261328  0.99449625    -0.02500
H425        H  0.63195110  0.23983501  0.95085232     0.04900
C426        C  0.57000474  0.17843865  0.98657456     0.20400
H427        H  0.66016035  0.14138274  0.00788866     0.10100
C428        C  0.54525658  0.16946275  0.94974568    -0.15900
C429        C  0.51031382  0.16840155  0.95412188     0.03100
C430        C  0.49981392  0.17645489  0.99611925    -0.11200
C431        C  0.52409903  0.18375800  0.03330729    -0.01200
C432        C  0.55913694  0.18527659  0.02868995    -0.06400
H433        H  0.55354507  0.16402664  0.91730864     0.06100
H434        H  0.51696982  0.19060101  0.06564379     0.09500
Br435      Br  0.57651794  0.10647780  0.01963982    -0.06100
Br436      Br  0.71561991  0.27579604  0.94115932    -0.03000
Br437      Br  0.47845783  0.15560503  0.90160162    -0.00200
Br438      Br  0.59262439  0.19986418  0.07999359    -0.04600
C439        C  0.86836129  0.58224677  0.10472151    -0.12000
C440        C  0.90541206  0.61397491  0.11486605     0.03500
C441        C  0.92971204  0.60907239  0.14440491    -0.12500
C442        C  0.91750436  0.57315651  0.16470940     0.18400
C443        C  0.88003584  0.54208751  0.15617993    -0.09500
C444        C  0.85610535  0.54663269  0.12604191    -0.02500
H445        H  0.95845968  0.63320487  0.15105678     0.04900
C446        C  0.94433980  0.56799695  0.19372749     0.20400
H447        H  0.82747695  0.52218996  0.11964776     0.10100
C448        C  0.95170796  0.58241925  0.23765336    -0.15900
C449        C  0.97511121  0.57583053  0.26678990     0.03100
C450        C  0.99195353  0.55459247  0.25177036    -0.11200
C451        C  0.98510184  0.54112802  0.20717906    -0.01200
C452        C  0.96155580  0.54753363  0.17841333    -0.06400
H453        H  0.93868228  0.59839043  0.24953898     0.06100
H454        H  0.99751806  0.52478723  0.19465366     0.09500
Br455      Br  0.86007217  0.49307102  0.18567228    -0.06100
Br456      Br  0.92526316  0.66403981  0.08808745    -0.03000
Br457      Br  0.98333043  0.59755377  0.32591544    -0.00200
Br458      Br  0.95347694  0.52750114  0.11843997    -0.04600
C459        C  0.88859497  0.28032342  0.11572283    -0.12000
C460        C  0.89474642  0.26449910  0.15520997     0.03500
C461        C  0.91935160  0.28919154  0.18858294    -0.12500
C462        C  0.93767358  0.32921129  0.18316627     0.18400
C463        C  0.93278105  0.34497930  0.14334621    -0.09500
C464        C  0.90851468  0.32057035  0.10997750    -0.02500
H465        H  0.92302156  0.27722778  0.21955492     0.04900
C466        C  0.95938920  0.35480951  0.22029858     0.20400
H467        H  0.90430830  0.33322032  0.07991837     0.10100
C468        C  0.99946181  0.37214206  0.22093414    -0.15900
C469        C  0.02202808  0.40450473  0.24756265     0.03100
C470        C  0.00401362  0.42006989  0.27363206    -0.11200
C471        C  0.96349379  0.39963469  0.27636706    -0.01200
C472        C  0.94120507  0.36738569  0.24976605    -0.06400
H473        H  0.01331124  0.36195508  0.19846576     0.06100
H474        H  0.94880605  0.41014934  0.29689192     0.09500
Br475      Br  0.95683015  0.39976640  0.13430405    -0.06100
Br476      Br  0.86806337  0.21007681  0.16803603    -0.03000
Br477      Br  0.07677083  0.42616388  0.24428913    -0.00200
Br478      Br  0.88617121  0.34410874  0.25092581    -0.04600
C479        C  0.05792535  0.60613338  0.45416151    -0.12000
C480        C  0.08946657  0.62865045  0.48277730     0.03500
C481        C  0.08752918  0.65345878  0.51311119    -0.12500
C482        C  0.05412094  0.65541263  0.51686674     0.18400
C483        C  0.02152828  0.63097493  0.49058753    -0.09500
C484        C  0.02360109  0.60636617  0.45936947    -0.02500
H485        H  0.11280427  0.67225242  0.53306830     0.04900
C486        C  0.05696311  0.68729038  0.54342154     0.20400
H487        H  0.99887564  0.58830840  0.43830309     0.10100
C488        C  0.05567030  0.71689945  0.52037732    -0.15900
C489        C  0.06922235  0.75274480  0.54035062     0.03100
C490        C  0.08483863  0.75936911  0.58420880    -0.11200
C491        C  0.08426799  0.72902944  0.60798924    -0.01200
C492        C  0.06993821  0.69298995  0.58820660    -0.06400
H493        H  0.04670978  0.71305549  0.48549551     0.06100
H494        H  0.09569059  0.73355508  0.64182451     0.09500
Br495      Br  0.97409389  0.63054068  0.49605852    -0.06100
Br496      Br  0.13557020  0.62599929  0.48364072    -0.03000
Br497      Br  0.06973149  0.79225204  0.50351495    -0.00200
Br498      Br  0.07027764  0.65293381  0.62282648    -0.04600
C499        C  0.10997921  0.34811236  0.59531857    -0.12000
C500        C  0.08243975  0.35548037  0.61453739     0.03500
C501        C  0.07098850  0.37819570  0.59109799    -0.12500
C502        C  0.08701776  0.39431576  0.54913183     0.18400
C503        C  0.11628606  0.38920344  0.53156085    -0.09500
C504        C  0.12701346  0.36584672  0.55416825    -0.02500
H505        H  0.04907203  0.38280292  0.60529705     0.04900
C506        C  0.07328803  0.41642940  0.52355494     0.20400
H507        H  0.14918696  0.36184661  0.53953891     0.10100
C508        C  0.08384896  0.45362478  0.53757528    -0.15900
C509        C  0.07696907  0.47771410  0.51012998     0.03100
C510        C  0.05950745  0.46466009  0.46743656    -0.11200
C511        C  0.04609428  0.42617276  0.45538366    -0.01200
C512        C  0.05273928  0.40211742  0.48307575    -0.06400
H513        H  0.09882653  0.46448360  0.56923489     0.06100
H514        H  0.03211898  0.41523896  0.42323928     0.09500
Br515      Br  0.14328057  0.41452258  0.47730514    -0.06100
Br516      Br  0.05821405  0.33439761  0.67140788    -0.03000
Br517      Br  0.09189859  0.52772962  0.53346855    -0.00200
Br518      Br  0.03466936  0.35035686  0.46343135    -0.04600
C519        C  0.37384705  0.11327180  0.13421982    -0.12000
C520        C  0.36345397  0.07571529  0.12033257     0.03500
C521        C  0.36926105  0.05182380  0.14934999    -0.12500
C522        C  0.38499614  0.06444504  0.19226033     0.18400
C523        C  0.39258625  0.10059602  0.20745972    -0.09500
C524        C  0.38707431  0.12470684  0.17846099    -0.02500
H525        H  0.36373447  0.02413622  0.13736320     0.04900
C526        C  0.40000319  0.04294137  0.21651253     0.20400
H527        H  0.39492165  0.15328207  0.18985336     0.10100
C528        C  0.43446505  0.04672984  0.20116034    -0.15900
C529        C  0.44953687  0.02598851  0.22108597     0.03100
C530        C  0.43012124  0.00101229  0.25756733    -0.11200
C531        C  0.39600098  0.99789819  0.27370175    -0.01200
C532        C  0.38061210  0.01832272  0.25305257    -0.06400
H533        H  0.44961825  0.06583649  0.17317944     0.06100
H534        H  0.38065391  0.97861492  0.30146075     0.09500
Br535      Br  0.41370837  0.11954542  0.26598854    -0.06100
Br536      Br  0.34606741  0.05695187  0.06057116    -0.03000
Br537      Br  0.49748387  0.03426782  0.19781173    -0.00200
Br538      Br  0.33242750  0.01053373  0.27425894    -0.04600
C539        C  0.73386108  0.13719017  0.11799036    -0.12000
C540        C  0.73129711  0.10296698  0.13390691     0.03500
C541        C  0.70078059  0.07800181  0.16217412    -0.12500
C542        C  0.67250366  0.08645320  0.17445600     0.18400
C543        C  0.67509560  0.12056516  0.15879040    -0.09500
C544        C  0.70575048  0.14574006  0.13120734    -0.02500
H545        H  0.69869204  0.05157721  0.17398799     0.04900
C546        C  0.63876009  0.05811578  0.20062705     0.20400
H547        H  0.70694541  0.17163138  0.11890875     0.10100
C548        C  0.63980096  0.05922840  0.24777314    -0.15900
C549        C  0.60698989  0.03391090  0.27292662     0.03100
C550        C  0.57274983  0.00721671  0.25059268    -0.11200
C551        C  0.57231478  0.00566153  0.20349155    -0.01200
C552        C  0.60482379  0.03089489  0.17852650    -0.06400
H553        H  0.66605451  0.07995067  0.26492178     0.06100
H554        H  0.54619139  0.98518444  0.18589934     0.09500
Br555      Br  0.63646336  0.13302839  0.17271538    -0.06100
Br556      Br  0.76901960  0.08944151  0.11946716    -0.03000
Br557      Br  0.61092014  0.03524154  0.33719226    -0.00200
Br558      Br  0.60132635  0.02773232  0.11421552    -0.04600
C559        C  0.23515387  0.89549008  0.58099202    -0.12000
C560        C  0.26890220  0.89966100  0.60136503     0.03500
C561        C  0.29953873  0.90448330  0.57445727    -0.12500
C562        C  0.29767302  0.90578347  0.52751200     0.18400
C563        C  0.26491693  0.90296763  0.50726780    -0.09500
C564        C  0.23429779  0.89804731  0.53379087    -0.02500
H565        H  0.32482418  0.90678765  0.59021601     0.04900
C566        C  0.32911371  0.90824387  0.49967062     0.20400
H567        H  0.20917797  0.89518844  0.51696758     0.10100
C568        C  0.33088950  0.87488538  0.49284054    -0.15900
C569        C  0.35769950  0.87506410  0.46300482     0.03100
C570        C  0.38322545  0.90915936  0.43905176    -0.11200
C571        C  0.38239450  0.94293010  0.44760312    -0.01200
C572        C  0.35569656  0.94267464  0.47757087    -0.06400
H573        H  0.31089870  0.84841296  0.51031541     0.06100
H574        H  0.40210779  0.96954639  0.43020354     0.09500
Br575      Br  0.25984675  0.90367310  0.44317297    -0.06100
Br576      Br  0.27546739  0.89823969  0.66517885    -0.03000
Br577      Br  0.35921972  0.82847358  0.45840478    -0.00200
Br578      Br  0.35627563  0.98988544  0.48711546    -0.04600
C579        C  0.66022355  0.90571608  0.59287109    -0.12000
C580        C  0.62198064  0.89373558  0.60571073     0.03500
C581        C  0.59964002  0.90297894  0.57846868    -0.12500
C582        C  0.61454390  0.92391637  0.53854463     0.18400
C583        C  0.65316708  0.93799403  0.52711463    -0.09500
C584        C  0.67568693  0.92903962  0.55426044    -0.02500
H585        H  0.56984420  0.89227843  0.58737661     0.04900
C586        C  0.58785760  0.92550432  0.50618199     0.20400
H587        H  0.70498029  0.93902625  0.54379612     0.10100
C588        C  0.58729734  0.95966144  0.49997375    -0.15900
C589        C  0.56191178  0.96107848  0.46890652     0.03100
C590        C  0.53685586  0.92788423  0.44372936    -0.11200
C591        C  0.53695965  0.89364430  0.45117371    -0.01200
C592        C  0.56251603  0.89238744  0.48147791    -0.06400
H593        H  0.60636261  0.98503821  0.51955760     0.06100
H594        H  0.51740389  0.86773749  0.43270269     0.09500
Br595      Br  0.67540197  0.96678627  0.47287108    -0.06100
Br596      Br  0.59783596  0.86448823  0.65922977    -0.03000
Br597      Br  0.56028592  0.00763668  0.46504320    -0.00200
Br598      Br  0.56258380  0.84501551  0.48693858    -0.04600
C599        C  0.34965702  0.81988655  0.26014156    -0.12000
C600        C  0.34173328  0.78256727  0.24927171     0.03500
C601        C  0.30365727  0.75264663  0.24328665    -0.12500
C602        C  0.27310208  0.75917444  0.24877449     0.18400
C603        C  0.28121766  0.79714920  0.25553463    -0.09500
C604        C  0.31944841  0.82735358  0.26062296    -0.02500
H605        H  0.29773743  0.72352962  0.23827341     0.04900
C606        C  0.23477302  0.72551835  0.25929193     0.20400
H607        H  0.32527334  0.85602381  0.26856003     0.10100
C608        C  0.22298922  0.72036560  0.30420256    -0.15900
C609        C  0.19149073  0.68569766  0.31899289     0.03100
C610        C  0.17087136  0.65509232  0.28853049    -0.11200
C611        C  0.18107263  0.66113579  0.24279963    -0.01200
C612        C  0.21311099  0.69597201  0.22812490    -0.06400
H613        H  0.23964458  0.74287975  0.32847923     0.06100
H614        H  0.16548148  0.63801567  0.21888648     0.09500
Br615      Br  0.24076931  0.80822381  0.26221451    -0.06100
Br616      Br  0.38153062  0.77031290  0.24478158    -0.03000
Br617      Br  0.17863135  0.68223828  0.38140573    -0.00200
Br618      Br  0.22714048  0.70160284  0.16590498    -0.04600
C619        C  0.57638019  0.57052475  0.25489152    -0.12000
C620        C  0.61385395  0.58995052  0.27410021     0.03500
C621        C  0.64591122  0.59911603  0.24735747    -0.12500
C622        C  0.64154605  0.58956706  0.20170390     0.18400
C623        C  0.60453260  0.57060950  0.18248577    -0.09500
C624        C  0.57254766  0.56160144  0.20882629    -0.02500
H625        H  0.67440778  0.61339463  0.26233891     0.04900
C626        C  0.67525432  0.59636425  0.17530522     0.20400
H627        H  0.54432791  0.54637416  0.19320562     0.10100
C628        C  0.68929503  0.57153052  0.18168838    -0.15900
C629        C  0.71788267  0.57345533  0.15378331     0.03100
C630        C  0.73271899  0.60063366  0.11789653    -0.11200
C631        C  0.72007594  0.62709202  0.11352771    -0.01200
C632        C  0.69170284  0.62520368  0.14203577    -0.06400
H633        H  0.67709566  0.54971431  0.20786558     0.06100
H634        H  0.73127972  0.64853448  0.08694306     0.09500
Br635      Br  0.59581506  0.55411428  0.12104040    -0.06100
Br636      Br  0.62405136  0.60525948  0.33603823    -0.03000
Br637      Br  0.73453167  0.53768878  0.16760919    -0.00200
Br638      Br  0.67562682  0.66198189  0.13408835    -0.04600
C639        C  0.38575011  0.27068389  0.12055960    -0.12000
C640        C  0.40517688  0.30989297  0.10734882     0.03500
C641        C  0.40998129  0.33806207  0.13790982    -0.12500
C642        C  0.39573896  0.32796681  0.18173629     0.18400
C643        C  0.37380367  0.28871169  0.19401752    -0.09500
C644        C  0.36883665  0.26026997  0.16333242    -0.02500
H645        H  0.42619622  0.36821668  0.12798252     0.04900
C646        C  0.40679951  0.35931356  0.21441441     0.20400
H647        H  0.35388307  0.23028475  0.17388358     0.10100
C648        C  0.38038412  0.37037420  0.22607857    -0.15900
C649        C  0.39201135  0.40360017  0.25168837     0.03100
C650        C  0.43097490  0.42658345  0.26555447    -0.11200
C651        C  0.45663684  0.41390619  0.25600656    -0.01200
C652        C  0.44488489  0.38070373  0.23060077    -0.06400
H653        H  0.35089616  0.35369273  0.21414769     0.06100
H654        H  0.48648628  0.43075787  0.26663881     0.09500
Br655      Br  0.35284631  0.27308270  0.25322058    -0.06100
Br656      Br  0.42634541  0.32679005  0.04820216    -0.03000
Br657      Br  0.35307906  0.41538612  0.26691119    -0.00200
Br658      Br  0.48220352  0.36627293  0.21754564    -0.04600
C659        C  0.55384603  0.61697144  0.44784882    -0.12000
C660        C  0.55771423  0.60615504  0.49183794     0.03500
C661        C  0.58119755  0.63465570  0.52283569    -0.12500
C662        C  0.60109002  0.67372320  0.51045106     0.18400
C663        C  0.59873234  0.68434471  0.46605355    -0.09500
C664        C  0.57504299  0.65604597  0.43525383    -0.02500
H665        H  0.58311471  0.62647197  0.55703160     0.04900
C666        C  0.62308450  0.70341811  0.54439035     0.20400
H667        H  0.57233192  0.66470180  0.40157093     0.10100
C668        C  0.66333786  0.72222606  0.54399516    -0.15900
C669        C  0.68535038  0.75420150  0.57132858     0.03100
C670        C  0.66701236  0.76692887  0.60069160    -0.11200
C671        C  0.62662816  0.74679696  0.60276959    -0.01200
C672        C  0.60457660  0.71557661  0.57424488    -0.06400
H673        H  0.67764477  0.71308894  0.52080300     0.06100
H674        H  0.61225910  0.75698388  0.62439837     0.09500
Br675      Br  0.62561598  0.73730702  0.44668649    -0.06100
Br676      Br  0.52906808  0.55370254  0.51280569    -0.03000
Br677      Br  0.74016707  0.78016538  0.56579119    -0.00200
Br678      Br  0.54964925  0.69299150  0.57384193    -0.04600
C679        C  0.25151072  0.34554826  0.59702492    -0.12000
C680        C  0.27678803  0.33191251  0.58887088     0.03500
C681        C  0.31167226  0.35554655  0.56655480    -0.12500
C682        C  0.32172068  0.39262711  0.55195072     0.18400
C683        C  0.29671406  0.40642852  0.56078687    -0.09500
C684        C  0.26227930  0.38314436  0.58386664    -0.02500
H685        H  0.33060800  0.34464817  0.55957802     0.04900
C686        C  0.35592781  0.41488198  0.52317237     0.20400
H687        H  0.24275755  0.39362626  0.58916643     0.10100
C688        C  0.35548652  0.40123279  0.47986730    -0.15900
C689        C  0.38357072  0.42456241  0.44839797     0.03100
C690        C  0.41211583  0.46269326  0.46001394    -0.11200
C691        C  0.41419351  0.47509363  0.50448146    -0.01200
C692        C  0.38687667  0.45113305  0.53629217    -0.06400
H693        H  0.33204144  0.37304642  0.46978639     0.06100
H694        H  0.43663429  0.50385391  0.51427023     0.09500
Br695      Br  0.30608886  0.45509102  0.53790227    -0.06100
Br696      Br  0.26526885  0.28150608  0.60774500    -0.03000
Br697      Br  0.37873504  0.40386902  0.38916126    -0.00200
Br698      Br  0.39236402  0.46921001  0.59690150    -0.04600
C699        C  0.49802655  0.83231854  0.27391617    -0.12000
C700        C  0.52324615  0.82632133  0.30098453     0.03500
C701        C  0.52734738  0.79455701  0.29300492    -0.12500
C702        C  0.50754939  0.76924893  0.25754938     0.18400
C703        C  0.48770948  0.77894019  0.22629696    -0.09500
C704        C  0.48319908  0.81041967  0.23450540    -0.02500
H705        H  0.54364354  0.78795417  0.31658205     0.04900
C706        C  0.49932778  0.72924947  0.26112063     0.20400
H707        H  0.46549327  0.81576558  0.21176355     0.10100
C708        C  0.46210045  0.70096660  0.27452212    -0.15900
C709        C  0.45345936  0.66397273  0.28636914     0.03100
C710        C  0.48237325  0.65434779  0.28441844    -0.11200
C711        C  0.51929166  0.68211850  0.26869468    -0.01200
C712        C  0.52805429  0.71962968  0.25766144    -0.06400
H713        H  0.43989004  0.70824499  0.27757765     0.06100
H714        H  0.54174096  0.67511992  0.26673326     0.09500
Br715      Br  0.46352891  0.74786800  0.17424328    -0.06100
Br716      Br  0.55267978  0.86008728  0.34919368    -0.03000
Br717      Br  0.40141544  0.62822548  0.30477699    -0.00200
Br718      Br  0.57939791  0.75696236  0.23884206    -0.04600
C719        C  0.17594165  0.51838313  0.33035696    -0.12000
C720        C  0.20414672  0.52885193  0.36423761     0.03500
C721        C  0.23338353  0.52071515  0.35858362    -0.12500
C722        C  0.23487726  0.50183417  0.32005073     0.18400
C723        C  0.20538770  0.48894658  0.28778948    -0.09500
C724        C  0.17666029  0.49806481  0.29261830    -0.02500
H725        H  0.25607728  0.53062769  0.38356209     0.04900
C726        C  0.26976368  0.49992072  0.31283418     0.20400
H727        H  0.15493513  0.48940995  0.26673465     0.10100
C728        C  0.27819841  0.47860089  0.34302030    -0.15900
C729        C  0.31499802  0.48362372  0.34456065     0.03100
C730        C  0.34399141  0.51027264  0.31516099    -0.11200
C731        C  0.33427477  0.52884855  0.28223175    -0.01200
C732        C  0.29781518  0.52462327  0.28157445    -0.06400
H733        H  0.25666555  0.45958901  0.36715737     0.06100
H734        H  0.35600890  0.54923200  0.25922102     0.09500
Br735      Br  0.20327411  0.45881670  0.23709980    -0.06100
Br736      Br  0.20692103  0.55745630  0.41699284    -0.03000
Br737      Br  0.32369164  0.45389243  0.38829956    -0.00200
Br738      Br  0.28972015  0.55735864  0.24169975    -0.04600
loop_ 
_geom_bond_atom_site_label_1 
_geom_bond_atom_site_label_2 
_geom_bond_distance 
_geom_bond_site_symmetry_2 
_ccdc_geom_bond_type 
O1          Cr19   1.960       .  S
O1            C9   1.258       .  A
O2          Cr19   2.007       .  S
O2            C3   1.265       .  A
C3            O4   1.259       .  A
C3          C710   1.477       .  S
O4          Cr20   1.982       .  S
O5          Cr20   2.005       .  S
O5            C6   1.268       .  A
C6            O7   1.259       .  A
C6          C619   1.486       .  S
O7          Cr21   1.972       .  S
O8          Cr21   2.020       .  S
O8            C9   1.268       .  A
C9          C659   1.470       .  S
O10         Cr19   2.008       .  S
O10          C18   1.265       .  A
O11         Cr19   1.968       .  S
O11          C12   1.258       .  A
C12          O13   1.268       .  A
C12         C730   1.476       .  S
O13         Cr20   2.012       .  S
O14         Cr20   1.969       .  S
O14          C15   1.257       .  A
C15          O16   1.268       .  A
C15         C650   1.481       .  S
O16         Cr21   2.013       .  S
O17         Cr21   1.972       .  S
O17          C18   1.257       .  A
C18         C690   1.474       .  S
Cr19         O22   1.760       .  S
Cr20         O22   1.764       .  S
Cr21         O22   1.768       .  S
O23         Cr41   1.980       .  S
O23          C31   1.264       .  A
O24         Cr41   2.008       .  S
O24          C25   1.265       .  A
C25          O26   1.258       .  A
C25         C599   1.470       .  S
O26         Cr42   1.977       .  S
O27         Cr42   2.000       .  S
O27          C28   1.263       .  A
C28          O29   1.259       .  A
C28         C530   1.475   1_565  S
O29         Cr43   1.982       .  S
O30         Cr43   2.014       .  S
O30          C31   1.270       .  A
C31         C570   1.485       .  S
O32         Cr41   1.992       .  S
O32          C40   1.262       .  A
O33         Cr41   1.981       .  S
O33          C34   1.261       .  A
C34          O35   1.266       .  A
C34         C699   1.483       .  S
O35         Cr42   2.008       .  S
O36         Cr42   1.957       .  S
O36          C37   1.256       .  A
C37          O38   1.270       .  A
C37         C550   1.472   1_565  S
O38         Cr43   2.023       .  S
O39         Cr43   1.979       .  S
O39          C40   1.259       .  A
C40         C590   1.472       .  S
Cr41         O44   1.766       .  S
Cr42         O44   1.770       .  S
Cr43         O44   1.773       .  S
O45         Cr63   2.005       .  S
O45          C53   1.263       .  A
O46         Cr63   1.956       .  S
O46          C47   1.255       .  A
C47          O48   1.268       .  A
C47         C719   1.470       .  S
O48         Cr64   2.012       .  S
O49         Cr64   1.967       .  S
O49          C50   1.255       .  A
C50          O51   1.264       .  A
C50         C470   1.478       .  S
O51         Cr65   1.993       .  S
O52         Cr65   1.987       .  S
O52          C53   1.262       .  A
C53         C510   1.485       .  S
O54         Cr63   1.952       .  S
O54          C62   1.255       .  A
O55         Cr63   2.003       .  S
O55          C56   1.265       .  A
C56          O57   1.260       .  A
C56         C610   1.478       .  S
O57         Cr64   1.981       .  S
O58         Cr64   2.012       .  S
O58          C59   1.270       .  A
C59          O60   1.263       .  A
C59         C450   1.491   1_455  S
O60         Cr65   1.983       .  S
O61         Cr65   2.009       .  S
O61          C62   1.265       .  A
C62         C479   1.460       .  S
Cr63         O66   1.758       .  S
Cr64         O66   1.767       .  S
Cr65         O66   1.769       .  S
O67         Cr85   2.000       .  S
O67          C75   1.262       .  A
O68         Cr85   1.973       .  S
O68          C69   1.261       .  A
C69          O70   1.266   1_554  A
C69         C430   1.477   1_554  S
O70         Cr86   2.009       .  S
O71         Cr86   1.963       .  S
O71          C72   1.258       .  A
C72          O73   1.271       .  A
C72         C390   1.480       .  S
O73         Cr87   2.021   1_556  S
O74         Cr87   1.984       .  S
O74          C75   1.259       .  A
C75         C519   1.480       .  S
O76         Cr85   1.953       .  S
O76          C84   1.256       .  A
O77         Cr85   1.995       .  S
O77          C78   1.264   1_554  A
C78          O79   1.259       .  A
C78         C399   1.485       .  S
O79         Cr86   1.981       .  S
O80         Cr86   1.999       .  S
O80          C81   1.265       .  A
C81          O82   1.260       .  A
C81         C359   1.486       .  S
O82         Cr87   1.983   1_556  S
O83         Cr87   2.029       .  S
O83          C84   1.271       .  A
C84         C639   1.473       .  S
Cr85         O88   1.761       .  S
Cr86         O88   1.763   1_556  S
Cr87         O88   1.770       .  S
O89        Cr107   1.958       .  S
O89          C97   1.259       .  A
O90        Cr107   1.997   1_556  S
O90          C91   1.263       .  A
C91          O92   1.257       .  A
C91         C339   1.474       .  S
O92        Cr108   1.978       .  S
O93        Cr108   2.011       .  S
O93          C94   1.269       .  A
C94          O95   1.264       .  A
C94         C310   1.482       .  S
O95        Cr109   1.981   1_556  S
O96        Cr109   2.006       .  S
O96          C97   1.264       .  A
C97         C459   1.470       .  S
O98        Cr107   1.997       .  S
O98         C106   1.262       .  A
O99        Cr107   1.961       .  S
O99         C100   1.256   1_554  A
C100        O101   1.268       .  A
C100        C419   1.465       .  S
O101       Cr108   2.018       .  S
O102       Cr108   1.977       .  S
O102        C103   1.259       .  A
C103        O104   1.261       .  A
C103        C330   1.473       .  S
O104       Cr109   1.991   1_556  S
O105       Cr109   1.986       .  S
O105        C106   1.261       .  A
C106        C539   1.478       .  S
Cr107       O110   1.763       .  S
Cr108       O110   1.770   1_556  S
Cr109       O110   1.772       .  S
O111       Cr129   1.990       .  S
O111        C119   1.259       .  A
O112       Cr129   1.972       .  S
O112        C113   1.259   1_554  A
C113        O114   1.265       .  A
C113        C410   1.472       .  S
O114       Cr130   2.007       .  S
O115       Cr130   1.972       .  S
O115        C116   1.260       .  A
C116        O117   1.268       .  A
C116        C259   1.485       .  S
O117       Cr131   2.016   1_556  S
O118       Cr131   1.991       .  S
O118        C119   1.263       .  A
C119        C630   1.487       .  S
O120       Cr129   1.971       .  S
O120        C128   1.262       .  A
O121       Cr129   1.999   1_556  S
O121        C122   1.263       .  A
C122        O123   1.260       .  A
C122        C350   1.475       .  S
O123       Cr130   1.983       .  S
O124       Cr130   1.991       .  S
O124        C125   1.264       .  A
C125        O126   1.260       .  A
C125        C279   1.468       .  S
O126       Cr131   1.982   1_556  S
O127       Cr131   2.021       .  S
O127        C128   1.269       .  A
C128        C439   1.483       .  S
Cr129       O132   1.760   1_554  S
Cr130       O132   1.769       .  S
Cr131       O132   1.769   1_554  S
O133       Cr151   1.959       .  S
O133        C141   1.257       .  A
O134       Cr151   1.999       .  S
O134        C135   1.263       .  A
C135        O136   1.260       .  A
C135        C250   1.473       .  S
O136       Cr152   1.975       .  S
O137       Cr152   1.997       .  S
O137        C138   1.263       .  A
C138        O139   1.259       .  A
C138        C670   1.466       .  S
O139       Cr153   1.976       .  S
O140       Cr153   2.026       .  S
O140        C141   1.270       .  A
C141        C270   1.469       .  S
O142       Cr151   2.001       .  S
O142        C150   1.262       .  A
O143       Cr151   1.978       .  S
O143        C144   1.262       .  A
C144        O145   1.264       .  A
C144        C230   1.475   1_565  S
O145       Cr152   1.999       .  S
O146       Cr152   1.964       .  S
O146        C147   1.259       .  A
C147        O148   1.267       .  A
C147        C579   1.483       .  S
O148       Cr153   2.012       .  S
O149       Cr153   1.973       .  S
O149        C150   1.254       .  A
C150        C319   1.460       .  S
Cr151       O154   1.765       .  S
Cr152       O154   1.762       .  S
Cr153       O154   1.773       .  S
O155       Cr173   1.952       .  S
O155        C163   1.259       .  A
O156       Cr173   2.004       .  S
O156        C157   1.265       .  A
C157        O158   1.259       .  A
C157        C210   1.470       .  S
O158       Cr174   1.980       .  S
O159       Cr174   2.006       .  S
O159        C160   1.267       .  A
C160        O161   1.261       .  A
C160        C559   1.495       .  S
O161       Cr175   1.983       .  S
O162       Cr175   2.027       .  S
O162        C163   1.270       .  A
C163        C379   1.488       .  S
O164       Cr173   2.001       .  S
O164        C172   1.263       .  A
O165       Cr173   1.962       .  S
O165        C166   1.256       .  A
C166        O167   1.268       .  A
C166        C239   1.481       .  S
O167       Cr174   2.012       .  S
O168       Cr174   1.954       .  S
O168        C169   1.254       .  A
C169        O170   1.268       .  A
C169        C490   1.468       .  S
O170       Cr175   2.010       .  S
O171       Cr175   1.983       .  S
O171        C172   1.258       .  A
C172        C290   1.482       .  S
Cr173       O176   1.756       .  S
Cr174       O176   1.765       .  S
Cr175       O176   1.768       .  S
O177       Cr195   1.967       .  S
O177        C185   1.260       .  A
O178       Cr195   2.001       .  S
O178        C179   1.264       .  A
C179        O180   1.260       .  A
C179        C219   1.467       .  S
O180       Cr196   1.984       .  S
O181       Cr196   2.006       .  S
O181        C182   1.267       .  A
C182        O183   1.260       .  A
C182        C499   1.485       .  S
O183       Cr197   1.981       .  S
O184       Cr197   2.022       .  S
O184        C185   1.270       .  A
C185        C299   1.481       .  S
O186       Cr195   1.999       .  S
O186        C194   1.264       .  A
O187       Cr195   1.965       .  S
O187        C188   1.257       .  A
C188        O189   1.269       .  A
C188        C199   1.483       .  S
O189       Cr196   2.018       .  S
O190       Cr196   1.965       .  S
O190        C191   1.258       .  A
C191        O192   1.269       .  A
C191        C679   1.471       .  S
O192       Cr197   2.015       .  S
O193       Cr197   1.982       .  S
O193        C194   1.258       .  A
C194        C370   1.487       .  S
Cr195       O198   1.760       .  S
Cr196       O198   1.766       .  S
Cr197       O198   1.767       .  S
C199        C200   1.416       .  A
C199        C204   1.407       .  A
C200        C201   1.396       .  A
C200       Br216   1.923       .  S
C201        C202   1.400       .  A
C201        H205   1.084       .  S
C202        C206   1.477       .  S
C202        C203   1.407       .  A
C203        C204   1.399       .  A
C203       Br215   1.919       .  S
C204        H207   1.083       .  S
C206        C208   1.401       .  A
C206        C212   1.409       .  A
C208        C209   1.392   1_545  A
C208        H213   1.084       .  S
C209        C210   1.410       .  A
C209       Br217   1.920       .  S
C210        C211   1.404   1_565  A
C211        C212   1.402       .  A
C211        H214   1.083       .  S
C212       Br218   1.917       .  S
C219        C220   1.409   1_455  A
C219        C224   1.402       .  A
C220        C221   1.400       .  A
C220       Br236   1.918   1_655  S
C221        C222   1.402       .  A
C221        H225   1.083       .  S
C222        C226   1.471       .  S
C222        C223   1.406       .  A
C223        C224   1.394   1_655  A
C223       Br235   1.920       .  S
C224        H227   1.084       .  S
C226        C228   1.399       .  A
C226        C232   1.407       .  A
C228        C229   1.399       .  A
C228        H233   1.083       .  S
C229        C230   1.415       .  A
C229       Br237   1.921   1_545  S
C230        C231   1.403       .  A
C231        C232   1.394       .  A
C231        H234   1.083       .  S
C232       Br238   1.920       .  S
C239        C240   1.417   1_455  A
C239        C244   1.408   1_455  A
C240        C241   1.394       .  A
C240       Br256   1.919       .  S
C241        C242   1.397       .  A
C241        H245   1.084       .  S
C242        C246   1.466       .  S
C242        C243   1.402       .  A
C243        C244   1.396       .  A
C243       Br255   1.917       .  S
C244        H247   1.083   1_655  S
C246        C248   1.400       .  A
C246        C252   1.401       .  A
C248        C249   1.394       .  A
C248        H253   1.084       .  S
C249        C250   1.414       .  A
C249       Br257   1.924       .  S
C250        C251   1.404       .  A
C251        C252   1.394       .  A
C251        H254   1.079       .  S
C252       Br258   1.917       .  S
C259        C260   1.418       .  A
C259        C264   1.409       .  A
C260        C261   1.399       .  A
C260       Br276   1.922       .  S
C261        C262   1.399       .  A
C261        H265   1.084       .  S
C262        C266   1.475       .  S
C262        C263   1.404       .  A
C263        C264   1.399       .  A
C263       Br275   1.918       .  S
C264        H267   1.083       .  S
C266        C268   1.400       .  A
C266        C272   1.408       .  A
C268        C269   1.396       .  A
C268        H273   1.084       .  S
C269        C270   1.410       .  A
C269       Br277   1.920       .  S
C270        C271   1.402       .  A
C271        C272   1.402       .  A
C271        H274   1.083       .  S
C272       Br278   1.916       .  S
C279        C280   1.410       .  A
C279        C284   1.400       .  A
C280        C281   1.403       .  A
C280       Br296   1.917       .  S
C281        C282   1.403       .  A
C281        H285   1.083       .  S
C282        C286   1.471   1_655  S
C282        C283   1.405       .  A
C283        C284   1.389       .  A
C283       Br295   1.914       .  S
C284        H287   1.084       .  S
C286        C288   1.400       .  A
C286        C292   1.403       .  A
C288        C289   1.400       .  A
C288        H293   1.084   1_455  S
C289        C290   1.416       .  A
C289       Br297   1.918       .  S
C290        C291   1.408       .  A
C291        C292   1.396       .  A
C291        H294   1.083       .  S
C292       Br298   1.918       .  S
C299        C300   1.414       .  A
C299        C304   1.405       .  A
C300        C301   1.402       .  A
C300       Br316   1.921       .  S
C301        C302   1.403   1_455  A
C301        H305   1.083       .  S
C302        C306   1.482       .  S
C302        C303   1.408       .  A
C303        C304   1.396   1_655  A
C303       Br315   1.920       .  S
C304        H307   1.083       .  S
C306        C308   1.402       .  A
C306        C312   1.409       .  A
C308        C309   1.398       .  A
C308        H313   1.084       .  S
C309        C310   1.412       .  A
C309       Br317   1.919       .  S
C310        C311   1.407       .  A
C311        C312   1.402       .  A
C311        H314   1.083       .  S
C312       Br318   1.919       .  S
C319        C320   1.406       .  A
C319        C324   1.399       .  A
C320        C321   1.400       .  A
C320       Br336   1.917       .  S
C321        C322   1.403   1_565  A
C321        H325   1.083       .  S
C322        C326   1.470       .  S
C322        C323   1.407       .  A
C323        C324   1.393   1_545  A
C323       Br335   1.920       .  S
C324        H327   1.084       .  S
C326        C328   1.398       .  A
C326        C332   1.405       .  A
C328        C329   1.391       .  A
C328        H333   1.084       .  S
C329        C330   1.414       .  A
C329       Br337   1.924       .  S
C330        C331   1.407       .  A
C331        C332   1.400       .  A
C331        H334   1.083       .  S
C332       Br338   1.917       .  S
C339        C340   1.413       .  A
C339        C344   1.402       .  A
C340        C341   1.402       .  A
C340       Br356   1.920       .  S
C341        C342   1.401       .  A
C341        H345   1.083       .  S
C342        C346   1.471       .  S
C342        C343   1.407       .  A
C343        C344   1.394       .  A
C343       Br355   1.922   1_556  S
C344        H347   1.084   1_556  S
C346        C348   1.398       .  A
C346        C352   1.406       .  A
C348        C349   1.392       .  A
C348        H353   1.084       .  S
C349        C350   1.413       .  A
C349       Br357   1.920       .  S
C350        C351   1.407       .  A
C351        C352   1.402       .  A
C351        H354   1.083       .  S
C352       Br358   1.916       .  S
C359        C360   1.417       .  A
C359        C364   1.408       .  A
C360        C361   1.403       .  A
C360       Br376   1.921   1_556  S
C361        C362   1.402       .  A
C361        H365   1.083       .  S
C362        C366   1.476       .  S
C362        C363   1.404       .  A
C363        C364   1.394       .  A
C363       Br375   1.920       .  S
C364        H367   1.083       .  S
C366        C368   1.402       .  A
C366        C372   1.404       .  A
C368        C369   1.401       .  A
C368        H373   1.084       .  S
C369        C370   1.417       .  A
C369       Br377   1.922       .  S
C370        C371   1.409       .  A
C371        C372   1.395       .  A
C371        H374   1.083       .  S
C372       Br378   1.919       .  S
C379        C380   1.419       .  A
C379        C384   1.409       .  A
C380        C381   1.405       .  A
C380       Br396   1.921       .  S
C381        C382   1.402       .  A
C381        H385   1.083       .  S
C382        C386   1.471   1_565  S
C382        C383   1.401       .  A
C383        C384   1.388       .  A
C383       Br395   1.922   1_565  S
C384        H387   1.083       .  S
C386        C388   1.397       .  A
C386        C392   1.406       .  A
C388        C389   1.394       .  A
C388        H393   1.084       .  S
C389        C390   1.416       .  A
C389       Br397   1.921       .  S
C390        C391   1.407       .  A
C391        C392   1.401       .  A
C391        H394   1.083       .  S
C392       Br398   1.918   1_545  S
C399        C400   1.419       .  A
C399        C404   1.408   1_556  A
C400        C401   1.402       .  A
C400       Br416   1.921       .  S
C401        C402   1.400       .  A
C401        H405   1.083       .  S
C402        C406   1.469       .  S
C402        C403   1.403   1_556  A
C403        C404   1.389       .  A
C403       Br415   1.922       .  S
C404        H407   1.083       .  S
C406        C408   1.402       .  A
C406        C412   1.405       .  A
C408        C409   1.398       .  A
C408        H413   1.083   1_556  S
C409        C410   1.409       .  A
C409       Br417   1.919   1_556  S
C410        C411   1.403       .  A
C411        C412   1.395       .  A
C411        H414   1.083       .  S
C412       Br418   1.920       .  S
C419        C420   1.409       .  A
C419        C424   1.403       .  A
C420        C421   1.397       .  A
C420       Br436   1.920       .  S
C421        C422   1.402       .  A
C421        H425   1.084       .  S
C422        C426   1.470       .  S
C422        C423   1.406       .  A
C423        C424   1.396       .  A
C423       Br435   1.918   1_556  S
C424        H427   1.084   1_556  S
C426        C428   1.399       .  A
C426        C432   1.405   1_556  A
C428        C429   1.399       .  A
C428        H433   1.084       .  S
C429        C430   1.415       .  A
C429       Br437   1.918       .  S
C430        C431   1.405   1_556  A
C431        C432   1.394       .  A
C431        H434   1.083       .  S
C432       Br438   1.920       .  S
C439        C440   1.415       .  A
C439        C444   1.406       .  A
C440        C441   1.404       .  A
C440       Br456   1.920       .  S
C441        C442   1.403       .  A
C441        H445   1.083       .  S
C442        C446   1.481       .  S
C442        C443   1.406       .  A
C443        C444   1.397       .  A
C443       Br455   1.919       .  S
C444        H447   1.084       .  S
C446        C448   1.402       .  A
C446        C452   1.406       .  A
C448        C449   1.404       .  A
C448        H453   1.083       .  S
C449        C450   1.418       .  A
C449       Br457   1.921       .  S
C450        C451   1.409       .  A
C451        C452   1.398       .  A
C451        H454   1.083       .  S
C452       Br458   1.921       .  S
C459        C460   1.416       .  A
C459        C464   1.403       .  A
C460        C461   1.397       .  A
C460       Br476   1.922       .  S
C461        C462   1.397       .  A
C461        H465   1.084       .  S
C462        C466   1.460       .  S
C462        C463   1.404       .  A
C463        C464   1.389       .  A
C463       Br475   1.922       .  S
C464        H467   1.084       .  S
C466        C468   1.396       .  A
C466        C472   1.402       .  A
C468        C469   1.395   1_655  A
C468        H473   1.084   1_655  S
C469        C470   1.418       .  A
C469       Br477   1.919       .  S
C470        C471   1.407   1_455  A
C471        C472   1.390       .  A
C471        H474   1.083       .  S
C472       Br478   1.920       .  S
C479        C480   1.409       .  A
C479        C484   1.403       .  A
C480        C481   1.385       .  A
C480       Br496   1.923       .  S
C481        C482   1.399       .  A
C481        H485   1.084       .  S
C482        C486   1.468       .  S
C482        C483   1.408       .  A
C483        C484   1.399       .  A
C483       Br495   1.918   1_455  S
C484        H487   1.083   1_455  S
C486        C488   1.400       .  A
C486        C492   1.407       .  A
C488        C489   1.393       .  A
C488        H493   1.084       .  S
C489        C490   1.414       .  A
C489       Br497   1.923       .  S
C490        C491   1.402       .  A
C491        C492   1.393       .  A
C491        H494   1.083       .  S
C492       Br498   1.920       .  S
C499        C500   1.416       .  A
C499        C504   1.406       .  A
C500        C501   1.405       .  A
C500       Br516   1.921       .  S
C501        C502   1.403       .  A
C501        H505   1.083       .  S
C502        C506   1.479       .  S
C502        C503   1.406       .  A
C503        C504   1.395       .  A
C503       Br515   1.922       .  S
C504        H507   1.084       .  S
C506        C508   1.399       .  A
C506        C512   1.408       .  A
C508        C509   1.400       .  A
C508        H513   1.084       .  S
C509        C510   1.417       .  A
C509       Br517   1.919       .  S
C510        C511   1.406       .  A
C511        C512   1.398       .  A
C511        H514   1.083       .  S
C512       Br518   1.919       .  S
C519        C520   1.413       .  A
C519        C524   1.407       .  A
C520        C521   1.399       .  A
C520       Br536   1.921       .  S
C521        C522   1.401       .  A
C521        H525   1.084       .  S
C522        C526   1.476       .  S
C522        C523   1.406       .  A
C523        C524   1.399       .  A
C523       Br535   1.919       .  S
C524        H527   1.084       .  S
C526        C528   1.400       .  A
C526        C532   1.407       .  A
C528        C529   1.394       .  A
C528        H533   1.084       .  S
C529        C530   1.412       .  A
C529       Br537   1.922       .  S
C530        C531   1.406   1_545  A
C531        C532   1.403   1_565  A
C531        H534   1.083       .  S
C532       Br538   1.917       .  S
C539        C540   1.412       .  A
C539        C544   1.406       .  A
C540        C541   1.402       .  A
C540       Br556   1.918       .  S
C541        C542   1.402       .  A
C541        H545   1.083       .  S
C542        C546   1.473       .  S
C542        C543   1.404       .  A
C543        C544   1.395       .  A
C543       Br555   1.920       .  S
C544        H547   1.084       .  S
C546        C548   1.404       .  A
C546        C552   1.404       .  A
C548        C549   1.403       .  A
C548        H553   1.083       .  S
C549        C550   1.409       .  A
C549       Br557   1.918       .  S
C550        C551   1.404       .  A
C551        C552   1.392       .  A
C551        H554   1.084   1_545  S
C552       Br558   1.919       .  S
C559        C560   1.421       .  A
C559        C564   1.410       .  A
C560        C561   1.405       .  A
C560       Br576   1.922       .  S
C561        C562   1.402       .  A
C561        H565   1.083       .  S
C562        C566   1.481       .  S
C562        C563   1.404       .  A
C563        C564   1.396       .  A
C563       Br575   1.920       .  S
C564        H567   1.083       .  S
C566        C568   1.402       .  A
C566        C572   1.406       .  A
C568        C569   1.402       .  A
C568        H573   1.084       .  S
C569        C570   1.415       .  A
C569       Br577   1.920       .  S
C570        C571   1.407       .  A
C571        C572   1.400       .  A
C571        H574   1.083       .  S
C572       Br578   1.918       .  S
C579        C580   1.416       .  A
C579        C584   1.410       .  A
C580        C581   1.398       .  A
C580       Br596   1.921       .  S
C581        C582   1.400       .  A
C581        H585   1.084       .  S
C582        C586   1.470       .  S
C582        C583   1.403       .  A
C583        C584   1.395       .  A
C583       Br595   1.919       .  S
C584        H587   1.083       .  S
C586        C588   1.403       .  A
C586        C592   1.405       .  A
C588        C589   1.402       .  A
C588        H593   1.083       .  S
C589        C590   1.411       .  A
C589       Br597   1.919   1_565  S
C590        C591   1.402       .  A
C591        C592   1.390       .  A
C591        H594   1.083       .  S
C592       Br598   1.921       .  S
C599        C600   1.410       .  A
C599        C604   1.402       .  A
C600        C601   1.395       .  A
C600       Br616   1.918       .  S
C601        C602   1.401       .  A
C601        H605   1.084       .  S
C602        C606   1.476       .  S
C602        C603   1.409       .  A
C603        C604   1.400       .  A
C603       Br615   1.917       .  S
C604        H607   1.084       .  S
C606        C608   1.399       .  A
C606        C612   1.408       .  A
C608        C609   1.392       .  A
C608        H613   1.084       .  S
C609        C610   1.411       .  A
C609       Br617   1.917       .  S
C610        C611   1.407       .  A
C611        C612   1.403       .  A
C611        H614   1.083       .  S
C612       Br618   1.917       .  S
C619        C620   1.419       .  A
C619        C624   1.407       .  A
C620        C621   1.401       .  A
C620       Br636   1.923       .  S
C621        C622   1.400       .  A
C621        H625   1.084       .  S
C622        C626   1.474       .  S
C622        C623   1.404       .  A
C623        C624   1.393       .  A
C623       Br635   1.919       .  S
C624        H627   1.083       .  S
C626        C628   1.396       .  A
C626        C632   1.405       .  A
C628        C629   1.396       .  A
C628        H633   1.084       .  S
C629        C630   1.421       .  A
C629       Br637   1.925       .  S
C630        C631   1.408       .  A
C631        C632   1.400       .  A
C631        H634   1.083       .  S
C632       Br638   1.918       .  S
C639        C640   1.412       .  A
C639        C644   1.404       .  A
C640        C641   1.394       .  A
C640       Br656   1.923       .  S
C641        C642   1.400       .  A
C641        H645   1.084       .  S
C642        C646   1.475       .  S
C642        C643   1.408       .  A
C643        C644   1.403       .  A
C643       Br655   1.916       .  S
C644        H647   1.084       .  S
C646        C648   1.400       .  A
C646        C652   1.407       .  A
C648        C649   1.401       .  A
C648        H653   1.084       .  S
C649        C650   1.417       .  A
C649       Br657   1.922       .  S
C650        C651   1.405       .  A
C651        C652   1.396       .  A
C651        H654   1.083       .  S
C652       Br658   1.920       .  S
C659        C660   1.412       .  A
C659        C664   1.403       .  A
C660        C661   1.399       .  A
C660       Br676   1.919       .  S
C661        C662   1.400       .  A
C661        H665   1.084       .  S
C662        C666   1.469       .  S
C662        C663   1.406       .  A
C663        C664   1.393       .  A
C663       Br675   1.920       .  S
C664        H667   1.084       .  S
C666        C668   1.398       .  A
C666        C672   1.408       .  A
C668        C669   1.394       .  A
C668        H673   1.084       .  S
C669        C670   1.408       .  A
C669       Br677   1.910       .  S
C670        C671   1.402       .  A
C671        C672   1.398       .  A
C671        H674   1.084       .  S
C672       Br678   1.919       .  S
C679        C680   1.412       .  A
C679        C684   1.401       .  A
C680        C681   1.399       .  A
C680       Br696   1.921       .  S
C681        C682   1.402       .  A
C681        H685   1.084       .  S
C682        C686   1.475       .  S
C682        C683   1.410       .  A
C683        C684   1.396       .  A
C683       Br695   1.921       .  S
C684        H687   1.084       .  S
C686        C688   1.401       .  A
C686        C692   1.406       .  A
C688        C689   1.397       .  A
C688        H693   1.084       .  S
C689        C690   1.412       .  A
C689       Br697   1.922       .  S
C690        C691   1.405       .  A
C691        C692   1.397       .  A
C691        H694   1.083       .  S
C692       Br698   1.919       .  S
C699        C700   1.413       .  A
C699        C704   1.406       .  A
C700        C701   1.398       .  A
C700       Br716   1.916       .  S
C701        C702   1.401       .  A
C701        H705   1.084       .  S
C702        C706   1.476       .  S
C702        C703   1.406       .  A
C703        C704   1.398       .  A
C703       Br715   1.918       .  S
C704        H707   1.083       .  S
C706        C708   1.400       .  A
C706        C712   1.407       .  A
C708        C709   1.392       .  A
C708        H713   1.084       .  S
C709        C710   1.412       .  A
C709       Br717   1.920       .  S
C710        C711   1.408       .  A
C711        C712   1.404       .  A
C711        H714   1.083       .  S
C712       Br718   1.917       .  S
C719        C720   1.413       .  A
C719        C724   1.404       .  A
C720        C721   1.392       .  A
C720       Br736   1.923       .  S
C721        C722   1.400       .  A
C721        H725   1.084       .  S
C722        C726   1.470       .  S
C722        C723   1.405       .  A
C723        C724   1.397       .  A
C723       Br735   1.918       .  S
C724        H727   1.081       .  S
C726        C728   1.399       .  A
C726        C732   1.407       .  A
C728        C729   1.396       .  A
C728        H733   1.084       .  S
C729        C730   1.413       .  A
C729       Br737   1.918       .  S
C730        C731   1.404       .  A
C731        C732   1.395       .  A
C731        H734   1.083       .  S
C732       Br738   1.922       .  S
