geometry optimzed in LAMMPS
_audit_creation_date              2020-11-30 
_audit_creation_method            'lammps2cif' 
_symmetry_space_group_name_H-M    'P1' 
_symmetry_Int_Tables_number       1 
_symmetry_cell_setting            triclinic 
loop_ 
_symmetry_equiv_pos_as_xyz 
  x,y,z 
_cell_length_a                    31.06255644 
_cell_length_b                    31.031153231219783 
_cell_length_c                    54.66836788097299 
_cell_angle_alpha                 90.06383924947494 
_cell_angle_beta                  90.25646622466597 
_cell_angle_gamma                 89.79344327735839 
loop_ 
_atom_site_label 
_atom_site_type_symbol 
_atom_site_fract_x 
_atom_site_fract_y 
_atom_site_fract_z 
_atom_site_charge 
O1          O  0.43035068  0.42683806  0.91824748    -0.82000
C2          C  0.07642656  0.32346727  0.89725310     0.97400
O3          O  0.05469646  0.34705993  0.88306279    -0.71100
O4          O  0.47245535  0.32545972  0.88324906    -0.74700
Al5        Al  0.00237902  0.37835644  0.88677367     1.49000
C6          C  0.43675138  0.31726320  0.89315246     0.92600
O7          O  0.46425464  0.32851542  0.95332008    -0.80900
O8          O  0.03807219  0.42688441  0.95512821    -0.74500
Al9        Al  0.45101771  0.37742902  0.93450573     1.90100
O10         O  0.03281629  0.34064335  0.96140680    -0.73600
O11         O  0.08008274  0.41766816  0.91449020    -0.73400
O12         O  0.07312752  0.32818820  0.92001888    -0.79100
O13         O  0.03128904  0.43193280  0.88629490    -0.77300
O14         O  0.00182551  0.37781768  0.91956945    -1.13400
O15         O  0.44955630  0.40958803  0.88119007    -0.72600
C16         C  0.42645960  0.43120217  0.89549425     0.98100
C17         C  0.99812646  0.32130499  0.96602035     0.94500
Al18       Al  0.05171227  0.37812771  0.93623252     1.55600
O19         O  0.42391075  0.33872273  0.91153565    -0.77200
C20         C  0.06597280  0.44111573  0.89724391     0.98700
C21         C  0.50257529  0.43536798  0.96562461     0.93600
O22         O  0.46835960  0.41532927  0.96042435    -0.82500
O23         O  0.20307448  0.20013787  0.83019613    -0.82000
C24         C  0.30873902  0.05695457  0.85537235     0.97400
O25         O  0.28618989  0.07896037  0.86985850    -0.71100
O26         O  0.30200951  0.16072838  0.86807171    -0.74700
Al27       Al  0.25082155  0.12842172  0.86505156     1.49000
C28         C  0.31143126  0.19497801  0.85711555     0.92600
O29         O  0.30409778  0.15976285  0.79830801    -0.80900
O30         O  0.20128987  0.09125866  0.79875692    -0.74500
Al31       Al  0.25376578  0.17661625  0.81534060     1.90100
O32         O  0.28743889  0.09296897  0.79020920    -0.73600
O33         O  0.21362129  0.04801693  0.83870273    -0.73400
O34         O  0.30117497  0.05718345  0.83269418    -0.79100
O35         O  0.19912878  0.09633052  0.86664087    -0.77300
O36         O  0.25186194  0.12740392  0.83230024    -1.13400
O37         O  0.21610812  0.17813769  0.86745225    -0.72600
C38         C  0.19535605  0.20173397  0.85280845     0.98100
C39         C  0.31041067  0.12549202  0.78637782     0.94500
Al40       Al  0.25099948  0.07686142  0.81654957     1.55600
O41         O  0.29138636  0.20592157  0.83787833    -0.77200
C42         C  0.19099938  0.06099207  0.85629427     0.98700
C43         C  0.19462219  0.12433119  0.78592971     0.93600
O44         O  0.21693953  0.15782746  0.78910311    -0.82500
O45         O  0.32326539  0.41915065  0.58147407    -0.82000
C46         C  0.18290521  0.31064864  0.60573278     0.97400
O47         O  0.20358358  0.33515155  0.61999986    -0.71100
O48         O  0.28588353  0.31952226  0.61758784    -0.74700
Al49       Al  0.25267827  0.37079679  0.61574402     1.49000
C50         C  0.31928333  0.30969316  0.60576267     0.92600
O51         O  0.28340539  0.31982851  0.54838874    -0.80900
O52         O  0.21033333  0.42163194  0.55111336    -0.74500
Al53       Al  0.29929465  0.36944903  0.56597614     1.90100
O54         O  0.21660997  0.33553122  0.54008464    -0.73600
O55         O  0.16897812  0.40251949  0.59198402    -0.73400
O56         O  0.18388522  0.31645466  0.58292388    -0.79100
O57         O  0.21931829  0.42247750  0.61777265    -0.77300
O58         O  0.25078098  0.37008686  0.58320832    -1.13400
O59         O  0.30240390  0.40605009  0.61881820    -0.72600
C60         C  0.32573213  0.42655732  0.60410218     0.98100
C61         C  0.24968357  0.31301988  0.53623052     0.94500
Al62       Al  0.19949922  0.36919430  0.56789327     1.55600
O63         O  0.32998047  0.33071527  0.58701170    -0.77200
C64         C  0.18170485  0.42641424  0.60923788     0.98700
C65         C  0.24347094  0.42955595  0.53861239     0.93600
O66         O  0.27754741  0.40751198  0.54147486    -0.82500
O67         O  0.05472118  0.18874053  0.66964114    -0.82000
C68         C  0.44422594  0.05125965  0.64492454     0.97400
O69         O  0.46916683  0.07139968  0.63078500    -0.71100
O70         O  0.45312693  0.15426737  0.63272575    -0.74700
Al71       Al  0.00404317  0.12106507  0.63505041     1.49000
C72         C  0.44498820  0.18931678  0.64354514     0.92600
O73         O  0.45180758  0.15827603  0.70118124    -0.80900
O74         O  0.05083145  0.08101304  0.70136399    -0.74500
Al75       Al  0.50293681  0.17021000  0.68441545     1.90100
O76         O  0.46511940  0.09062905  0.70986994    -0.73600
O77         O  0.03518451  0.03964533  0.66073618    -0.73400
O78         O  0.44867181  0.05418913  0.66775484    -0.79100
O79         O  0.05604147  0.08796609  0.63413107    -0.77300
O80         O  0.00226839  0.12072862  0.66763534    -1.13400
O81         O  0.03928673  0.17069033  0.63202821    -0.72600
C82         C  0.06193887  0.19143837  0.64713247     0.98100
C83         C  0.44430114  0.12504150  0.71347258     0.94500
Al84       Al  0.99976326  0.07060953  0.68346173     1.55600
O85         O  0.46750626  0.20131612  0.66161692    -0.77200
C86         C  0.06067608  0.05154812  0.64405290     0.98700
C87         C  0.05924555  0.11455145  0.71340019     0.93600
O88         O  0.03809744  0.14893047  0.71006644    -0.82500
O89         O  0.31847003  0.06685358  0.41692139    -0.82000
C90         C  0.17832202  0.17548482  0.39421764     0.97400
O91         O  0.20061864  0.15337119  0.37988473    -0.71100
O92         O  0.28311996  0.17160384  0.38301412    -0.74700
Al93       Al  0.25045308  0.11970454  0.38402382     1.49000
C94         C  0.31978572  0.17614112  0.39280692     0.92600
O95         O  0.28954743  0.16823705  0.45150823    -0.80900
O96         O  0.21529372  0.06920944  0.45146985    -0.74500
Al97       Al  0.30115585  0.11750818  0.43310072     1.90100
O98         O  0.22110161  0.15685887  0.45869087    -0.73600
O99         O  0.17206419  0.08160602  0.41096278    -0.73400
O100        O  0.18082531  0.16947216  0.41699977    -0.79100
O101        O  0.21767628  0.06784181  0.38137106    -0.77300
O102        O  0.25089322  0.11891605  0.41687726    -1.13400
O103        O  0.30012295  0.08606307  0.37984950    -0.72600
C104        C  0.32120209  0.06231247  0.39406075     0.98100
C105        C  0.25557552  0.17710020  0.46305314     0.94500
Al106      Al  0.20153357  0.11930026  0.43315824     1.55600
O107        O  0.33139082  0.15285390  0.41054448    -0.77200
C108        C  0.18288814  0.05985357  0.39236041     0.98700
C109        C  0.24917925  0.06081141  0.46332729     0.93600
O110        O  0.28304108  0.08162111  0.45928198    -0.82500
O111        O  0.45288127  0.44254872  0.33764334    -0.82000
C112        C  0.05657032  0.30025455  0.35713970     0.97400
O113        O  0.03196394  0.31905596  0.37193822    -0.71100
O114        O  0.05145132  0.40108060  0.37335352    -0.74700
Al115      Al  0.49913628  0.36882673  0.36912042     1.49000
C116        C  0.06078846  0.43625806  0.36316044     0.92600
O117        O  0.05198515  0.41083517  0.30258074    -0.80900
O118        O  0.44910833  0.33894547  0.30170817    -0.74500
Al119      Al  0.00227233  0.42407301  0.32122870     1.90100
O120        O  0.03651358  0.34472470  0.29253888    -0.73600
O121        O  0.46440895  0.29172173  0.34070035    -0.73400
O122        O  0.05127348  0.30464141  0.33432888    -0.79100
O123        O  0.44572218  0.33844149  0.36885731    -0.77300
O124        O  0.50058650  0.37180505  0.33625432    -1.13400
O125        O  0.46695014  0.41926522  0.37448173    -0.72600
C126        C  0.44610507  0.44321221  0.36030836     0.98100
C127        C  0.05829727  0.37835343  0.28922907     0.94500
Al128      Al  0.50023095  0.32349316  0.31869389     1.55600
O129        O  0.04037488  0.44934471  0.34449875    -0.77200
C130        C  0.44005618  0.30302353  0.35804546     0.98700
C131        C  0.44107868  0.37384869  0.29066052     0.93600
O132        O  0.46349193  0.40696432  0.29494380    -0.82500
O133        O  0.06883394  0.17745902  0.08421370    -0.82000
C134        C  0.42202269  0.07571020  0.10527834     0.97400
O135        O  0.44434226  0.09789391  0.12000805    -0.71100
O136        O  0.02629396  0.08019127  0.12059206    -0.74700
Al137      Al  0.49488823  0.13224155  0.11732607     1.49000
C138        C  0.06101199  0.07067652  0.11012293     0.92600
O139        O  0.02929612  0.07809949  0.05161192    -0.80900
O140        O  0.46336569  0.18353453  0.05141372    -0.74500
Al141      Al  0.04571500  0.12789288  0.06883522     1.90100
O142        O  0.46504789  0.09738395  0.04108822    -0.73600
O143        O  0.41620452  0.16930295  0.08960012    -0.73400
O144        O  0.42476730  0.08190271  0.08251517    -0.79100
O145        O  0.46334119  0.18416666  0.11818402    -0.77300
O146        O  0.49615320  0.13105046  0.08472987    -1.13400
O147        O  0.04487041  0.16654588  0.12131136    -0.72600
C148        C  0.06923264  0.18618476  0.10669881     0.98100
C149        C  0.49744734  0.07349102  0.03833652     0.94500
Al150      Al  0.44676586  0.13286637  0.06763832     1.55600
O151        O  0.07326638  0.09045452  0.09134902    -0.77200
C152        C  0.42832128  0.19195978  0.10741723     0.98700
C153        C  0.99703876  0.18957265  0.03994100     0.93600
O154        O  0.02899938  0.16497613  0.04281878    -0.82500
O155        O  0.30226532  0.44771488  0.17031132    -0.82000
C156        C  0.18997488  0.30859194  0.14696073     0.97400
O157        O  0.21322590  0.33024662  0.13279352    -0.71100
O158        O  0.19618101  0.41338149  0.13557848    -0.74700
Al159      Al  0.24766962  0.38038580  0.13730703     1.49000
C160        C  0.19001109  0.44933293  0.14585033     0.92600
O161        O  0.20053733  0.41855312  0.20429788    -0.80900
O162        O  0.29611470  0.34019597  0.20504677    -0.74500
Al163      Al  0.25068217  0.42980274  0.18619801     1.90100
O164        O  0.20957590  0.34940823  0.21109659    -0.73600
O165        O  0.28329653  0.29984713  0.16395802    -0.73400
O166        O  0.19489554  0.31143475  0.16972662    -0.79100
O167        O  0.29895260  0.34797304  0.13585880    -0.77300
O168        O  0.24810411  0.37993211  0.16999829    -1.13400
O169        O  0.28214154  0.43033688  0.13335767    -0.72600
C170        C  0.30669158  0.45091067  0.14751846     0.98100
C171        C  0.19056888  0.38448460  0.21532825     0.94500
Al172      Al  0.24608718  0.32963584  0.18601701     1.55600
O173        O  0.21351514  0.46101439  0.16370729    -0.77200
C174        C  0.30642490  0.31263741  0.14647629     0.98700
C175        C  0.30577520  0.37381527  0.21667596     0.93600
O176        O  0.28709245  0.40908525  0.21194359    -0.82500
C177        C  0.14192372  0.21970762  0.10818416    -0.12500
C178        C  0.09915085  0.21911946  0.11626764     0.04500
C179        C  0.08578559  0.24912498  0.13411412    -0.07800
C180        C  0.11569676  0.27782114  0.14439616    -0.08500
C181        C  0.15862995  0.27794826  0.13650060    -0.03100
C182        C  0.17157271  0.24888702  0.11807303     0.03800
N183        N  0.21528392  0.24774358  0.10999009     0.66300
H184        H  0.15267062  0.19657682  0.09446959     0.15200
H185        H  0.10508875  0.30099148  0.15812345     0.14900
N186        N  0.04137754  0.25241217  0.14065585     0.74000
O187        O  0.24394138  0.23172547  0.12369787    -0.39500
O188        O  0.22629737  0.27038089  0.09192407    -0.39400
O189        O  0.02764289  0.23195806  0.15894396    -0.40100
O190        O  0.01481033  0.26796164  0.12548413    -0.40200
C191        C  0.39699256  0.23089643  0.14226583    -0.12500
C192        C  0.39993611  0.22597667  0.11687330     0.04500
C193        C  0.37386099  0.25168267  0.10148140    -0.07800
C194        C  0.34521380  0.28128635  0.11169255    -0.08500
C195        C  0.34066934  0.28456258  0.13707192    -0.03100
C196        C  0.36712173  0.25929801  0.15246828     0.03800
N197        N  0.36378801  0.26119388  0.17845260     0.66300
H198        H  0.41649242  0.21123744  0.15426827     0.15200
H199        H  0.32514971  0.30038924  0.09970124     0.14900
N200        N  0.37593329  0.24861293  0.07547138     0.74000
O201        O  0.34163627  0.23291207  0.18910199    -0.39500
O202        O  0.39266161  0.28065905  0.19038908    -0.39400
O203        O  0.34635162  0.22884697  0.06428635    -0.40100
O204        O  0.39758413  0.27631876  0.06404407    -0.40200
C205        C  0.33074875  0.49582577  0.11290148    -0.12500
C206        C  0.33866175  0.48059860  0.13669706     0.04500
C207        C  0.35513410  0.01658660  0.15207857    -0.07800
C208        C  0.38387205  0.04489337  0.14090819    -0.08500
C209        C  0.39176462  0.04350837  0.11558794    -0.03100
C210        C  0.35793948  0.52571535  0.10182503     0.03800
N211        N  0.34724343  0.54006973  0.07774474     0.66300
H212        H  0.30272184  0.48525501  0.10288407     0.15200
H213        H  0.39944160  0.06871243  0.15226889     0.14900
N214        N  0.34747294  0.02163084  0.17767100     0.74000
O215        O  0.35745633  0.51650300  0.05985823    -0.39500
O216        O  0.34737240  0.02280107  0.06144273    -0.39400
O217        O  0.37517156  0.00743707  0.19260133    -0.40100
O218        O  0.32199028  0.05092385  0.18459356    -0.40200
C219        C  0.13845348  0.01195690  0.15157778    -0.12500
C220        C  0.15550152  0.47855950  0.13669575     0.04500
C221        C  0.14571868  0.48188817  0.11144980    -0.07800
C222        C  0.11490350  0.51148194  0.10334091    -0.08500
C223        C  0.08897236  0.03712891  0.12025177    -0.03100
C224        C  0.10780190  0.04202112  0.14343226     0.03800
N225        N  0.09846411  0.07932485  0.15789122     0.66300
H226        H  0.15327096  0.01684985  0.16936341     0.15200
H227        H  0.10884499  0.51447739  0.08390445     0.14900
N228        N  0.16841271  0.45758772  0.09342675     0.74000
O229        O  0.06525563  0.07963424  0.17109768    -0.39500
O230        O  0.11620016  0.11462356  0.15259741    -0.39400
O231        O  0.14927557  0.42672156  0.08305189    -0.40100
O232        O  0.19957147  0.47515575  0.08262412    -0.40200
C233        C  0.11979793  0.41541878  0.26867988    -0.12500
C234        C  0.09140035  0.38001859  0.26957182     0.04500
C235        C  0.09539021  0.34743038  0.25143780    -0.07800
C236        C  0.12784312  0.34999402  0.23397829    -0.08500
C237        C  0.15609261  0.38478397  0.23349806    -0.03100
C238        C  0.15181795  0.41806615  0.25074919     0.03800
N239        N  0.18083189  0.45374786  0.25071920     0.66300
H240        H  0.11756805  0.44106886  0.28218972     0.15200
H241        H  0.13063415  0.32462794  0.22040753     0.14900
N242        N  0.06640669  0.31194202  0.24970340     0.74000
O243        O  0.17148479  0.48674173  0.23828262    -0.39500
O244        O  0.21917286  0.44823221  0.25783269    -0.39400
O245        O  0.03787240  0.31281791  0.23319624    -0.40100
O246        O  0.07854328  0.27585859  0.25787826    -0.40200
C247        C  0.36137399  0.41127841  0.24130305    -0.12500
C248        C  0.33974530  0.37281400  0.23588145     0.04500
C249        C  0.35079718  0.33529104  0.24919537    -0.07800
C250        C  0.38360114  0.33675942  0.26683844    -0.08500
C251        C  0.40572239  0.37514510  0.27209682    -0.03100
C252        C  0.39364183  0.41296291  0.25923545     0.03800
N253        N  0.41276268  0.45383618  0.26421516     0.66300
H254        H  0.35328929  0.44039845  0.23159833     0.15200
H255        H  0.39131592  0.30761238  0.27659395     0.14900
N256        N  0.32792502  0.29576404  0.24622526     0.74000
O257        O  0.39263244  0.48013428  0.27761652    -0.39500
O258        O  0.44055301  0.46812226  0.24957394    -0.39400
O259        O  0.34728638  0.26410579  0.23680050    -0.40100
O260        O  0.29630188  0.28855875  0.26001874    -0.40200
C261        C  0.13192840  0.23935086  0.39999513    -0.12500
C262        C  0.14911094  0.20857944  0.38404192     0.04500
C263        C  0.13795965  0.21042894  0.35888093    -0.07800
C264        C  0.10883372  0.24144233  0.35057058    -0.08500
C265        C  0.09032914  0.27113615  0.36670292    -0.03100
C266        C  0.10312788  0.27065284  0.39161726     0.03800
N267        N  0.08835342  0.30199141  0.40882018     0.66300
H268        H  0.14086903  0.23938557  0.41900447     0.15200
H269        H  0.09997186  0.24137473  0.33155356     0.14900
N270        N  0.15450582  0.18058056  0.34133935     0.74000
O271        O  0.05898351  0.29155201  0.42351749    -0.39500
O272        O  0.11335606  0.33232318  0.41461807    -0.39400
O273        O  0.13044879  0.15045431  0.33407794    -0.40100
O274        O  0.18517898  0.19233183  0.32786729    -0.40200
C275        C  0.42230962  0.23007584  0.37174233    -0.12500
C276        C  0.40788947  0.27202816  0.36699290     0.04500
C277        C  0.36407703  0.28234870  0.37075232    -0.07800
C278        C  0.33539944  0.25019676  0.37833362    -0.08500
C279        C  0.35017859  0.20843595  0.38346818    -0.03100
C280        C  0.39430408  0.19867275  0.38050191     0.03800
N281        N  0.41156040  0.15710232  0.38622529     0.66300
H282        H  0.45576530  0.22189541  0.36922348     0.15200
H283        H  0.30196019  0.25820474  0.38096497     0.14900
N284        N  0.34786568  0.32491536  0.36690903     0.74000
O285        O  0.41809623  0.13070883  0.36906988    -0.39500
O286        O  0.43192284  0.15230471  0.40606672    -0.39400
O287        O  0.32541902  0.33234633  0.34807786    -0.40100
O288        O  0.34432857  0.34970714  0.38510760    -0.40200
C289        C  0.38925436  0.99743227  0.35013278    -0.12500
C290        C  0.41325069  0.47221956  0.37021125     0.04500
C291        C  0.41091233  0.48318957  0.39527815    -0.07800
C292        C  0.37959191  0.51184107  0.40318543    -0.08500
C293        C  0.35000758  0.02963170  0.38374798    -0.03100
C294        C  0.36001055  0.02786080  0.35851816     0.03800
N295        N  0.34208354  0.05710813  0.34100420     0.66300
H296        H  0.39710975  0.99736071  0.33093489     0.15200
H297        H  0.37925850  0.52057690  0.42226044     0.14900
N298        N  0.44162535  0.46873713  0.41293956     0.74000
O299        O  0.36429082  0.08891482  0.33431335    -0.39500
O300        O  0.31246181  0.04388141  0.32706013    -0.39400
O301        O  0.46737532  0.49626210  0.42150112    -0.40100
O302        O  0.43228104  0.43657296  0.42595474    -0.40200
C303        C  0.12643352  0.00550498  0.40114754    -0.12500
C304        C  0.15375121  0.02482661  0.38389549     0.04500
C305        C  0.15043483  0.01180741  0.35915097    -0.07800
C306        C  0.12004373  0.98072839  0.35226828    -0.08500
C307        C  0.09635670  0.46321796  0.37226639    -0.03100
C308        C  0.10242864  0.47345123  0.39721353     0.03800
N309        N  0.07759623  0.45387184  0.41608672     0.66300
H310        H  0.12797642  0.01514118  0.42009935     0.15200
H311        H  0.11718294  0.97200150  0.33321537     0.14900
N312        N  0.17507751  0.03178624  0.34034649     0.74000
O313        O  0.09294288  0.42132258  0.42685706    -0.39500
O314        O  0.05047996  0.47673911  0.42728997    -0.39400
O315        O  0.20611733  0.01117875  0.33113123    -0.40100
O316        O  0.15800892  0.06187114  0.32815467    -0.40200
C317        C  0.28368868  0.97948466  0.51197807    -0.12500
C318        C  0.24338185  0.46418353  0.51986302     0.04500
C319        C  0.20710880  0.49031998  0.51445866    -0.07800
C320        C  0.20965116  0.52157909  0.49608392    -0.08500
C321        C  0.24867543  0.02702274  0.48254764    -0.03100
C322        C  0.28660237  0.01079641  0.49375279     0.03800
N323        N  0.32862166  0.02465917  0.48676707     0.66300
H324        H  0.31311537  0.96779386  0.52020779     0.15200
H325        H  0.18181801  0.54146010  0.49235928     0.14900
N326        N  0.16728890  0.48595239  0.52715479     0.74000
O327        O  0.34730206  0.05272562  0.49968416    -0.39500
O328        O  0.35116586  0.00006316  0.47356742    -0.39400
O329        O  0.15795176  0.51319875  0.54346172    -0.40100
O330        O  0.13731603  0.46492180  0.51712620    -0.40200
C331        C  0.28883082  0.25659137  0.51294783    -0.12500
C332        C  0.24994899  0.27860704  0.51724618     0.04500
C333        C  0.21328571  0.26695505  0.50329863    -0.07800
C334        C  0.21613098  0.23367081  0.48604140    -0.08500
C335        C  0.25509123  0.21193664  0.48170592    -0.03100
C336        C  0.29181918  0.22389510  0.49541024     0.03800
N337        N  0.33239686  0.20280824  0.49242121     0.66300
H338        H  0.31741813  0.26476404  0.52311278     0.15200
H339        H  0.18776007  0.22541664  0.47564542     0.14900
N340        N  0.17295202  0.28872729  0.50578106     0.74000
O341        O  0.36064968  0.22083027  0.47949715    -0.39500
O342        O  0.34421299  0.17566894  0.50828599    -0.39400
O343        O  0.16277653  0.31689482  0.49015003    -0.40100
O344        O  0.14340625  0.27063511  0.51764406    -0.40200
C345        C  0.11105480  0.21292562  0.61395056    -0.12500
C346        C  0.09637904  0.21958867  0.63789244     0.04500
C347        C  0.11359557  0.25398359  0.65169462    -0.07800
C348        C  0.14272136  0.28213497  0.64090339    -0.08500
C349        C  0.15549374  0.27695843  0.61648942    -0.03100
C350        C  0.14038515  0.24102695  0.60320902     0.03800
N351        N  0.15402844  0.23222586  0.57883393     0.66300
H352        H  0.09938078  0.18600827  0.60330798     0.15200
H353        H  0.15415959  0.30910841  0.65158325     0.14900
N354        N  0.10075089  0.26237115  0.67629575     0.74000
O355        O  0.18542924  0.20694805  0.57565472    -0.39500
O356        O  0.12711299  0.23710716  0.56173112    -0.39400
O357        O  0.12663207  0.25341897  0.69342238    -0.40100
O358        O  0.07134068  0.28969120  0.68009019    -0.40200
C359        C  0.35630864  0.27408357  0.64026940    -0.12500
C360        C  0.34788522  0.27529923  0.61510943     0.04500
C361        C  0.36875524  0.24539540  0.59965475    -0.07800
C362        C  0.39942747  0.21686923  0.60939565    -0.08500
C363        C  0.40978299  0.21744644  0.63442162    -0.03100
C364        C  0.38682880  0.24561154  0.65002125     0.03800
N365        N  0.39304778  0.24520117  0.67590983     0.66300
H366        H  0.33997297  0.29619160  0.65240885     0.15200
H367        H  0.41568627  0.19476787  0.59724142     0.14900
N368        N  0.35792346  0.24200811  0.57430779     0.74000
O369        O  0.41579227  0.27424049  0.68559659    -0.39500
O370        O  0.36635705  0.22520118  0.68897395    -0.39400
O371        O  0.38372828  0.25663908  0.55864431    -0.40100
O372        O  0.33082708  0.21399640  0.56778457    -0.40200
C373        C  0.34480881  0.47964260  0.63636534    -0.12500
C374        C  0.35547336  0.45971724  0.61408554     0.04500
C375        C  0.39461166  0.47095385  0.60273372    -0.07800
C376        C  0.41860504  0.00681047  0.61041172    -0.08500
C377        C  0.41161726  0.02218157  0.63423417    -0.03100
C378        C  0.37515287  0.00777754  0.64718466     0.03800
N379        N  0.36550125  0.02256853  0.67131159     0.66300
H380        H  0.31497812  0.47179030  0.64534279     0.15200
H381        H  0.44656044  0.01679714  0.60030369     0.14900
N382        N  0.40929196  0.44960832  0.58116463     0.74000
O383        O  0.33776345  0.05202132  0.67387704    -0.39500
O384        O  0.37335659  0.99790900  0.68913332    -0.39400
O385        O  0.40791148  0.46962946  0.56110220    -0.40100
O386        O  0.43510595  0.41835174  0.58343711    -0.40200
C387        C  0.16256479  0.00195126  0.61631304    -0.12500
C388        C  0.15175876  0.45869855  0.61951928     0.04500
C389        C  0.11088593  0.44676261  0.62823864    -0.07800
C390        C  0.08280982  0.47805073  0.63744498    -0.08500
C391        C  0.09439858  0.02088222  0.63571805    -0.03100
C392        C  0.13295760  0.03345295  0.62396239     0.03800
N393        N  0.14361738  0.07771080  0.62030062     0.66300
H394        H  0.19156246  0.01165687  0.60709515     0.15200
H395        H  0.05183471  0.46800887  0.64405474     0.14900
N396        N  0.09713112  0.40289919  0.62808675     0.74000
O397        O  0.16857197  0.09572191  0.63541776    -0.39500
O398        O  0.13995599  0.09342024  0.59910998    -0.39400
O399        O  0.09774631  0.38207459  0.64789272    -0.40100
O400        O  0.07298140  0.39021392  0.61093270    -0.40200
C401        C  0.14137028  0.08262508  0.76186545    -0.12500
C402        C  0.16081071  0.12262975  0.76674783     0.04500
C403        C  0.14745456  0.15896850  0.75305412    -0.07800
C404        C  0.11464485  0.15486508  0.73577086    -0.08500
C405        C  0.09474461  0.11518053  0.73131511    -0.03100
C406        C  0.10884946  0.07849136  0.74431965     0.03800
N407        N  0.09000949  0.03701700  0.74073147     0.66300
H408        H  0.15130147  0.05409759  0.77169072     0.15200
H409        H  0.10481351  0.18318388  0.72569470     0.14900
N410        N  0.16602954  0.20058497  0.75630464     0.74000
O411        O  0.10973765  0.00986339  0.72769184    -0.39500
O412        O  0.06321216  0.02361689  0.75622292    -0.39400
O413        O  0.19256651  0.21370103  0.74059765    -0.40100
O414        O  0.14541150  0.22811530  0.76856920    -0.40200
C415        C  0.37131871  0.16018256  0.76513836    -0.12500
C416        C  0.34473856  0.12394588  0.76759635     0.04500
C417        C  0.35179449  0.08802437  0.75197276    -0.07800
C418        C  0.38452143  0.08941371  0.73456187    -0.08500
C419        C  0.41048904  0.12580834  0.73211864    -0.03100
C420        C  0.40390287  0.16142831  0.74768188     0.03800
N421        N  0.43136054  0.19823677  0.74716157     0.66300
H422        H  0.36727966  0.18772385  0.77695528     0.15200
H423        H  0.38939571  0.06202306  0.72277929     0.14900
N424        N  0.32648729  0.04973155  0.75316839     0.74000
O425        O  0.41759067  0.23239264  0.73732951    -0.39500
O426        O  0.46139464  0.20076317  0.76271231    -0.39400
O427        O  0.29761615  0.04399155  0.73718915    -0.40100
O428        O  0.34210558  0.01725856  0.76393964    -0.40200
C429        C  0.46485644  0.49459850  0.98666770    -0.12500
C430        C  0.50179270  0.46894813  0.98470811     0.04500
C431        C  0.03744711  0.47508241  0.00196157    -0.07800
C432        C  0.03272621  0.01202838  0.01814077    -0.08500
C433        C  0.49777783  0.03947225  0.01929871    -0.03100
C434        C  0.46368130  0.03300773  0.00237561     0.03800
N435        N  0.42597931  0.05949723  0.00204663     0.66300
H436        H  0.43803354  0.48950805  0.97436715     0.15200
H437        H  0.05899571  0.01561053  0.03095140     0.14900
N438        N  0.07429395  0.44739174  0.00258100     0.74000
O439        O  0.42356907  0.08952655  0.98654614    -0.39500
O440        O  0.39160423  0.04453030  0.01077559    -0.39400
O441        O  0.10942228  0.46139548  0.99430938    -0.40100
O442        O  0.07532323  0.41735716  0.01812223    -0.40200
C443        C  0.46135656  0.24781389  0.01658367    -0.12500
C444        C  0.99898994  0.22500482  0.02205000     0.04500
C445        C  0.03724486  0.23647943  0.00971560    -0.07800
C446        C  0.03590726  0.26801193  0.99161989    -0.08500
C447        C  0.99745850  0.28930362  0.98576744    -0.03100
C448        C  0.46010920  0.28018613  0.99897163     0.03800
N449        N  0.42119190  0.30443140  0.99621706     0.66300
H450        H  0.43190863  0.24021019  0.02609355     0.15200
H451        H  0.06527429  0.27559123  0.98194693     0.14900
N452        N  0.07793406  0.21717196  0.01527157     0.74000
O453        O  0.39009665  0.28768950  0.98477334    -0.39500
O454        O  0.91235356  0.33339639  0.01107985    -0.39400
O455        O  0.59369515  0.19008761  0.00050303    -0.40100
O456        O  0.10355529  0.23711284  0.02919597    -0.40200
C457        C  0.16297855  0.23714772  0.88890359    -0.12500
C458        C  0.16306824  0.23194402  0.86333147     0.04500
C459        C  0.13310762  0.25590293  0.84934495    -0.07800
C460        C  0.10525078  0.28493342  0.86094051    -0.08500
C461        C  0.10594730  0.29081048  0.88647536    -0.03100
C462        C  0.13495445  0.26577818  0.90050823     0.03800
N463        N  0.13722849  0.26880327  0.92654608     0.66300
H464        H  0.18520045  0.21925826  0.90024207     0.15200
H465        H  0.08290970  0.30287730  0.84971916     0.14900
N466        N  0.12948807  0.25114507  0.82347107     0.74000
O467        O  0.16691878  0.29097843  0.93602543    -0.39500
O468        O  0.12014250  0.23943523  0.93911842    -0.40200
O469        O  0.14389296  0.28082621  0.81007528    -0.40100
O470        O  0.10034195  0.22695213  0.81509636    -0.40200
C471        C  0.37104898  0.24635189  0.85004318    -0.12500
C472        C  0.34616532  0.22302415  0.86674066     0.04500
C473        C  0.35428222  0.22830153  0.89205585    -0.07800
C474        C  0.38477059  0.25838037  0.90003529    -0.08500
C475        C  0.40870813  0.28268925  0.88336271    -0.03100
C476        C  0.40257984  0.27540842  0.85803884     0.03800
N477        N  0.42665136  0.29811737  0.84001093     0.66300
H478        H  0.36595727  0.24212859  0.83063907     0.15200
H479        H  0.38936140  0.26311196  0.91944569     0.14900
N480        N  0.33076578  0.20512319  0.91013367     0.74000
O481        O  0.45879572  0.27965898  0.83056638    -0.39500
O482        O  0.40833264  0.32799094  0.82826813    -0.39400
O483        O  0.34944062  0.17474708  0.92128508    -0.40100
O484        O  0.29893570  0.22323309  0.92012148    -0.40200
C485        C  0.39507793  0.00632436  0.89571877    -0.12500
C486        C  0.39504276  0.46231178  0.88566138     0.04500
C487        C  0.37473254  0.45693172  0.86270723    -0.07800
C488        C  0.34582403  0.48799427  0.85422944    -0.08500
C489        C  0.34222635  0.02798760  0.86510640    -0.03100
C490        C  0.36680744  0.03733145  0.88628316     0.03800
N491        N  0.36519131  0.07847915  0.89792068     0.66300
H492        H  0.41376333  0.01376889  0.91186987     0.15200
H493        H  0.33024632  0.48288220  0.83681246     0.14900
N494        N  0.38081109  0.41918685  0.84820127     0.74000
O495        O  0.34481075  0.08201631  0.91773420    -0.39500
O496        O  0.39450951  0.10528121  0.89327741    -0.39400
O497        O  0.35190436  0.39070951  0.84849254    -0.40100
O498        O  0.40536666  0.42136715  0.82992497    -0.40200
C499        C  0.09490623  0.48338619  0.86288724    -0.12500
C500        C  0.09205091  0.47750750  0.88821930     0.04500
C501        C  0.12384154  0.00054545  0.90193321    -0.07800
C502        C  0.15259790  0.02974433  0.89145350    -0.08500
C503        C  0.15664501  0.03315007  0.86602342    -0.03100
C504        C  0.12371512  0.51301592  0.85291866     0.03800
N505        N  0.12374634  0.51873043  0.82702027     0.66300
H506        H  0.07570421  0.46384127  0.85064082     0.15200
H507        H  0.17299325  0.04877451  0.90333317     0.14900
N508        N  0.12178851  0.99823277  0.92798659     0.74000
O509        O  0.14305082  0.49134908  0.81393808    -0.39500
O510        O  0.10161386  0.03259972  0.81400308    -0.39400
O511        O  0.13933034  0.48808816  0.94298886    -0.40100
O512        O  0.09989870  0.02617816  0.93926012    -0.40200
O513        O  0.43234064  0.93071910  0.91767239    -0.82000
C514        C  0.07582294  0.82416443  0.89879508     0.97400
O515        O  0.05384024  0.84633899  0.88404691    -0.71100
O516        O  0.47167336  0.82692827  0.88403545    -0.74700
Al517      Al  0.00307041  0.87956338  0.88655074     1.49000
C518        C  0.43579693  0.81975466  0.89398689     0.92600
O519        O  0.46335480  0.83218077  0.95392622    -0.80900
O520        O  0.03701476  0.93050612  0.95445049    -0.74500
Al521      Al  0.45143713  0.88108030  0.93460066     1.90100
O522        O  0.03117114  0.84416862  0.96191731    -0.73600
O523        O  0.08107613  0.91845749  0.91472079    -0.73400
O524        O  0.07256286  0.83026198  0.92142586    -0.79100
O525        O  0.03445249  0.93186649  0.88533172    -0.77300
O526        O  0.00157651  0.88026634  0.91934695    -1.13400
O527        O  0.45270693  0.91207003  0.88097244    -0.72600
C528        C  0.42981283  0.93476472  0.89483315     0.98100
C529        C  0.99672191  0.82408337  0.96591619     0.94500
Al530      Al  0.05101225  0.88074623  0.93657996     1.55600
O531        O  0.42334007  0.84232277  0.91199885    -0.77200
C532        C  0.06914427  0.94045980  0.89643931     0.98700
C533        C  0.50353372  0.93886728  0.96532743     0.93600
O534        O  0.46911056  0.91926612  0.96016724    -0.82500
O535        O  0.20238475  0.70047576  0.83368232    -0.82000
C536        C  0.30369887  0.55484441  0.85847453     0.97400
O537        O  0.28184933  0.57760849  0.87290318    -0.71100
O538        O  0.30186532  0.65942981  0.87113439    -0.74700
Al539      Al  0.24912251  0.62878446  0.86821471     1.49000
C540        C  0.31107393  0.69403875  0.86033868     0.92600
O541        O  0.30183828  0.66032615  0.80115689    -0.80900
O542        O  0.19842273  0.59345203  0.80163817    -0.74500
Al543      Al  0.25227911  0.67724718  0.81860495     1.90100
O544        O  0.28479932  0.59360245  0.79294698    -0.73600
O545        O  0.20892914  0.55022776  0.84161103    -0.73400
O546        O  0.29703843  0.55637541  0.83570622    -0.79100
O547        O  0.19598733  0.59884642  0.86970690    -0.77300
O548        O  0.24984656  0.62797315  0.83536862    -1.13400
O549        O  0.21679268  0.67985148  0.87101652    -0.72600
C550        C  0.19563159  0.70287718  0.85631595     0.98100
C551        C  0.30720340  0.62651583  0.78868703     0.94500
Al552      Al  0.24762908  0.57778148  0.81944574     1.55600
O553        O  0.29049558  0.70541175  0.84132718    -0.77200
C554        C  0.18644829  0.56403655  0.85912914     0.98700
C555        C  0.19213543  0.62668689  0.78892747     0.93600
O556        O  0.21490389  0.65980496  0.79224501    -0.82500
O557        O  0.32197131  0.92161619  0.58065241    -0.82000
C558        C  0.18450905  0.81073919  0.60649044     0.97400
O559        O  0.20581098  0.83500682  0.62059152    -0.71100
O560        O  0.28803714  0.81987445  0.61710322    -0.74700
Al561      Al  0.25484043  0.87079643  0.61585849     1.49000
C562        C  0.32241929  0.81207425  0.60577132     0.92600
O563        O  0.28580853  0.82017859  0.54926640    -0.80900
O564        O  0.21121578  0.92137784  0.55120471    -0.74500
Al565      Al  0.30053985  0.87068606  0.56594406     1.90100
O566        O  0.21875630  0.83545920  0.54083848    -0.73600
O567        O  0.17094309  0.90240971  0.59250423    -0.73400
O568        O  0.18557957  0.81628186  0.58364761    -0.79100
O569        O  0.22155578  0.92204041  0.61831817    -0.77300
O570        O  0.25226559  0.87044112  0.58338236    -1.13400
O571        O  0.30450902  0.90622745  0.61834463    -0.72600
C572        C  0.32571285  0.92826280  0.60326127     0.98100
C573        C  0.25220705  0.81348220  0.53697859     0.94500
Al574      Al  0.20099632  0.86904520  0.56835019     1.55600
O575        O  0.33306389  0.83419485  0.58742742    -0.77200
C576        C  0.18396181  0.92596676  0.60983982     0.98700
C577        C  0.24389471  0.92873061  0.53819493     0.93600
O578        O  0.27792549  0.90667469  0.54079572    -0.82500
O579        O  0.05448262  0.69081330  0.67149041    -0.82000
C580        C  0.44299004  0.55150516  0.64684416     0.97400
O581        O  0.46825561  0.57173036  0.63292083    -0.71100
O582        O  0.45228031  0.65510290  0.63466814    -0.74700
Al583      Al  0.00402010  0.62209994  0.63708230     1.49000
C584        C  0.44471321  0.69063426  0.64512788     0.92600
O585        O  0.45035858  0.66169822  0.70333463    -0.80900
O586        O  0.04896986  0.58361886  0.70439019    -0.74500
Al587      Al  0.50186893  0.67259936  0.68631617     1.90100
O588        O  0.46080039  0.59339513  0.71158312    -0.73600
O589        O  0.03567583  0.54119438  0.66347763    -0.73400
O590        O  0.44658795  0.55524389  0.66968447    -0.79100
O591        O  0.05604532  0.58915152  0.63650219    -0.77300
O592        O  0.00170552  0.62238694  0.66967824    -1.13400
O593        O  0.03938005  0.67179802  0.63397711    -0.72600
C594        C  0.06182715  0.69315134  0.64892927     0.98100
C595        C  0.44077250  0.62834588  0.71508171     0.94500
Al596      Al  0.99879625  0.57250020  0.68576003     1.55600
O597        O  0.46694016  0.70289132  0.66322334    -0.77200
C598        C  0.06079836  0.55284715  0.64649149     0.98700
C599        C  0.05705916  0.61748641  0.71622718     0.93600
O600        O  0.03645579  0.65190388  0.71228161    -0.82500
O601        O  0.31730507  0.56760466  0.41892862    -0.82000
C602        C  0.18089555  0.67967367  0.39646457     0.97400
O603        O  0.20221368  0.65708166  0.38179295    -0.71100
O604        O  0.28430058  0.67319611  0.38492269    -0.74700
Al605      Al  0.25157344  0.62207256  0.38574006     1.49000
C606        C  0.32119473  0.67693007  0.39435672     0.92600
O607        O  0.29111871  0.66951976  0.45274768    -0.80900
O608        O  0.21502605  0.57100875  0.45238365    -0.74500
Al609      Al  0.30178416  0.61861080  0.43471629     1.90100
O610        O  0.22278172  0.65805622  0.46055759    -0.73600
O611        O  0.17238619  0.58545065  0.41222448    -0.73400
O612        O  0.18323989  0.67301693  0.41916516    -0.79100
O613        O  0.21881937  0.57082635  0.38315876    -0.77300
O614        O  0.25178477  0.62102868  0.41851162    -1.13400
O615        O  0.30104173  0.58734154  0.38163233    -0.72600
C616        C  0.32083230  0.56294907  0.39617042     0.98100
C617        C  0.25740928  0.67822762  0.46452246     0.94500
Al618      Al  0.20245862  0.62190653  0.43473158     1.55600
O619        O  0.33305439  0.65323349  0.41191507    -0.77200
C620        C  0.18407503  0.56297495  0.39408761     0.98700
C621        C  0.24869848  0.56207273  0.46423816     0.93600
O622        O  0.28272204  0.58309863  0.46090776    -0.82500
O623        O  0.44971842  0.93914022  0.33371866    -0.82000
C624        C  0.05242640  0.79404625  0.35674856     0.97400
O625        O  0.02900449  0.81533417  0.37109071    -0.71100
O626        O  0.04984623  0.89801745  0.37070673    -0.74700
Al627      Al  0.49809562  0.86843859  0.36641501     1.49000
C628        C  0.05782549  0.93359289  0.36042787     0.92600
O629        O  0.05048535  0.90403040  0.30109385    -0.80900
O630        O  0.44795145  0.83646064  0.29950154    -0.74500
Al631      Al  0.99985391  0.91795096  0.31874637     1.90100
O632        O  0.03489784  0.83744714  0.29150967    -0.73600
O633        O  0.46251916  0.79041369  0.33865973    -0.73400
O634        O  0.04834253  0.79792661  0.33383770    -0.79100
O635        O  0.44513284  0.83761109  0.36682250    -0.77300
O636        O  0.49947642  0.86987192  0.33363422    -1.13400
O637        O  0.46520019  0.91839115  0.37087269    -0.72600
C638        C  0.44272853  0.94020701  0.35640323     0.98100
C639        C  0.05711434  0.87091311  0.28820968     0.94500
Al640      Al  0.49879410  0.82088677  0.31661766     1.55600
O641        O  0.03651867  0.94582989  0.34193183    -0.77200
C642        C  0.43902986  0.80206689  0.35626414     0.98700
C643        C  0.44038637  0.87100980  0.28807998     0.93600
O644        O  0.46374451  0.90355713  0.29150118    -0.82500
O645        O  0.07015523  0.67808586  0.08311541    -0.82000
C646        C  0.42276519  0.57549135  0.10484167     0.97400
O647        O  0.44560289  0.59696522  0.11962121    -0.71100
O648        O  0.02861256  0.57977782  0.11983195    -0.74700
Al649      Al  0.49619505  0.63125853  0.11640089     1.49000
C650        C  0.06407548  0.57133397  0.10983658     0.92600
O651        O  0.03267853  0.57718807  0.05136637    -0.80900
O652        O  0.46457959  0.68181496  0.04971283    -0.74500
Al653      Al  0.04826754  0.62787820  0.06809826     1.90100
O654        O  0.46530223  0.59489162  0.04095035    -0.73600
O655        O  0.41821977  0.67077802  0.08840709    -0.73400
O656        O  0.42443681  0.58282285  0.08220161    -0.79100
O657        O  0.46473746  0.68348909  0.11764631    -0.77300
O658        O  0.49693349  0.63020335  0.08374072    -1.13400
O659        O  0.04740397  0.66598792  0.12043427    -0.72600
C660        C  0.07118242  0.68603521  0.10568912     0.98100
C661        C  0.49762264  0.57068247  0.03838767     0.94500
Al662      Al  0.44750709  0.63239323  0.06680784     1.55600
O663        O  0.07627261  0.59177004  0.09123808    -0.77200
C664        C  0.43046565  0.69288426  0.10645472     0.98700
C665        C  0.99938952  0.68771693  0.03771380     0.93600
O666        O  0.03174334  0.66380875  0.04115681    -0.82500
O667        O  0.29712480  0.95008783  0.17085001    -0.82000
C668        C  0.19136377  0.80783127  0.14536753     0.97400
O669        O  0.21420761  0.83004583  0.13124904    -0.71100
O670        O  0.19381844  0.91234380  0.13485646    -0.74700
Al671      Al  0.24680286  0.88121398  0.13639037     1.49000
C672        C  0.18612898  0.94759847  0.14558802     0.92600
O673        O  0.19679428  0.91371801  0.20349052    -0.80900
O674        O  0.29644762  0.83994480  0.20308869    -0.74500
Al675      Al  0.24664070  0.92840010  0.18605518     1.90100
O676        O  0.21009664  0.84517348  0.20996719    -0.73600
O677        O  0.28524561  0.80066538  0.16175908    -0.73400
O678        O  0.19656528  0.80967320  0.16809194    -0.79100
O679        O  0.29969333  0.85062477  0.13454039    -0.77300
O680        O  0.24692887  0.87934573  0.16904473    -1.13400
O681        O  0.27927290  0.93274820  0.13349366    -0.72600
C682        C  0.30192056  0.95449332  0.14813713     0.98100
C683        C  0.18914672  0.87899279  0.21443905     0.94500
Al684      Al  0.24700876  0.82829432  0.18431642     1.55600
O685        O  0.20888661  0.95897922  0.16380526    -0.77200
C686        C  0.30840479  0.81508432  0.14468924     0.98700
C687        C  0.30385317  0.87300182  0.21566466     0.93600
O688        O  0.28348015  0.90770668  0.21172900    -0.82500
C689        C  0.14452975  0.71703703  0.10826379    -0.12500
C690        C  0.10115366  0.71854779  0.11520074     0.04500
C691        C  0.08723065  0.74994980  0.13207184    -0.07800
C692        C  0.11693512  0.77903131  0.14199911    -0.08500
C693        C  0.16027460  0.77740319  0.13501697    -0.03100
C694        C  0.17416123  0.74609885  0.11815251     0.03800
N695        N  0.21875652  0.74228812  0.11207926     0.66300
H696        H  0.15569171  0.69223180  0.09560240     0.15200
H697        H  0.10602201  0.80352004  0.15492245     0.14900
N698        N  0.04273994  0.75345542  0.13839274     0.74000
O699        O  0.24461853  0.72627999  0.12748407    -0.39500
O700        O  0.23338335  0.76340765  0.09426643    -0.39400
O701        O  0.02897233  0.73412305  0.15706651    -0.40100
O702        O  0.01621729  0.76783085  0.12283396    -0.40200
C703        C  0.40218515  0.73646854  0.14071315    -0.12500
C704        C  0.40307039  0.72846792  0.11551630     0.04500
C705        C  0.37593916  0.75292285  0.09999756    -0.07800
C706        C  0.34710982  0.78284474  0.10992151    -0.08500
C707        C  0.34401286  0.78840250  0.13522188    -0.03100
C708        C  0.37281106  0.76584190  0.15063549     0.03800
N709        N  0.37176163  0.77066123  0.17651237     0.66300
H710        H  0.42286032  0.71850217  0.15289417     0.15200
H711        H  0.32588436  0.80038965  0.09784792     0.14900
N712        N  0.37790351  0.74913044  0.07405149     0.74000
O713        O  0.35488261  0.74084229  0.18876757    -0.39500
O714        O  0.39932185  0.79463962  0.18666269    -0.39400
O715        O  0.34950817  0.72723299  0.06317407    -0.40100
O716        O  0.39735244  0.77809539  0.06235844    -0.40200
C717        C  0.34168118  0.98361352  0.11259231    -0.12500
C718        C  0.33362528  0.98521984  0.13788539     0.04500
C719        C  0.37589513  0.49483038  0.14916013    -0.07800
C720        C  0.40290415  0.52516023  0.13818099    -0.08500
C721        C  0.39410321  0.54156424  0.11470296    -0.03100
C722        C  0.37007698  0.01224694  0.10136710     0.03800
N723        N  0.37625158  0.00842756  0.07557891     0.66300
H724        H  0.32580709  0.95999589  0.10123377     0.15200
H725        H  0.43102931  0.53571513  0.14811719     0.14900
N726        N  0.38798487  0.47797965  0.17251443     0.74000
O727        O  0.40146930  0.97962696  0.06775367    -0.39500
O728        O  0.31702099  0.56697412  0.07511947    -0.39400
O729        O  0.41712601  0.44957760  0.17350204    -0.40100
O730        O  0.38018717  0.50008194  0.19137439    -0.40200
C731        C  0.13250202  0.50461242  0.15330975    -0.12500
C732        C  0.15097327  0.97678274  0.13675815     0.04500
C733        C  0.13084779  0.97198301  0.11351186    -0.07800
C734        C  0.10042378  0.00225572  0.10554960    -0.08500
C735        C  0.09266247  0.53772474  0.11979361    -0.03100
C736        C  0.10094385  0.53382982  0.14503004     0.03800
N737        N  0.07918271  0.56100069  0.16216800     0.66300
H738        H  0.13932272  0.50251078  0.17276195     0.15200
H739        H  0.08632643  0.99901137  0.08751288     0.14900
N740        N  0.14201029  0.93810621  0.09700983     0.74000
O741        O  0.04332933  0.54924723  0.17057606    -0.39500
O742        O  0.09003786  0.60003286  0.16402031    -0.39400
O743        O  0.11597584  0.90733438  0.09426126    -0.40100
O744        O  0.16813269  0.94621287  0.08002623    -0.40200
C745        C  0.12171269  0.90531911  0.26964851    -0.12500
C746        C  0.09104467  0.87188830  0.26903743     0.04500
C747        C  0.09344573  0.84104398  0.24983771    -0.07800
C748        C  0.12580437  0.84410331  0.23229330    -0.08500
C749        C  0.15560463  0.87753712  0.23303576    -0.03100
C750        C  0.15380840  0.90826420  0.25183956     0.03800
N751        N  0.18552785  0.94145650  0.25347810     0.66300
H752        H  0.12113880  0.92917854  0.28421978     0.15200
H753        H  0.12721533  0.82048196  0.21769294     0.14900
N754        N  0.06288941  0.80710025  0.24708268     0.74000
O755        O  0.17852350  0.97710986  0.24309759    -0.39500
O756        O  0.22347821  0.93178917  0.25981554    -0.39400
O757        O  0.03388735  0.81114255  0.23099407    -0.40100
O758        O  0.07376387  0.76963745  0.25367404    -0.40200
C759        C  0.35745358  0.91049012  0.24138703    -0.12500
C760        C  0.33734283  0.87176323  0.23494326     0.04500
C761        C  0.34994016  0.83342468  0.24703127    -0.07800
C762        C  0.38361784  0.83423472  0.26403369    -0.08500
C763        C  0.40444544  0.87281148  0.27014254    -0.03100
C764        C  0.39015182  0.91153718  0.25900746     0.03800
N765        N  0.40681129  0.95267742  0.26583132     0.66300
H766        H  0.34780056  0.94018148  0.23282053     0.15200
H767        H  0.39286172  0.80452548  0.27271193     0.14900
N768        N  0.32761207  0.79367740  0.24371953     0.74000
O769        O  0.38617846  0.97484183  0.28122703    -0.39500
O770        O  0.43190883  0.97163301  0.25133287    -0.39400
O771        O  0.34799693  0.76224719  0.23479789    -0.40100
O772        O  0.29602267  0.78589858  0.25743235    -0.40200
C773        C  0.11272952  0.71946754  0.39994489    -0.12500
C774        C  0.15044265  0.71182570  0.38675091     0.04500
C775        C  0.15605636  0.73203629  0.36382161    -0.07800
C776        C  0.12332009  0.75805335  0.35418770    -0.08500
C777        C  0.08522371  0.76503143  0.36722856    -0.03100
C778        C  0.08026707  0.74577456  0.39049592     0.03800
N779        N  0.04188764  0.75072186  0.40454237     0.66300
H780        H  0.10769008  0.70394687  0.41725003     0.15200
H781        H  0.12815073  0.77350866  0.33685150     0.14900
N782        N  0.19536841  0.72839084  0.35049182     0.74000
O783        O  0.01467569  0.72065221  0.40423764    -0.39500
O784        O  0.04230634  0.77624808  0.42252275    -0.39400
O785        O  0.19633042  0.70486831  0.33166145    -0.40100
O786        O  0.22317488  0.75766456  0.35288916    -0.40200
C787        C  0.42129143  0.72871900  0.36904950    -0.12500
C788        C  0.40739478  0.77132210  0.36581439     0.04500
C789        C  0.36460379  0.78255621  0.37170892    -0.07800
C790        C  0.33667196  0.75100305  0.38064375    -0.08500
C791        C  0.35117001  0.70876698  0.38451017    -0.03100
C792        C  0.39392117  0.69762495  0.37867189     0.03800
N793        N  0.40983915  0.65464057  0.38151612     0.66300
H794        H  0.45374162  0.71959387  0.36432736     0.15200
H795        H  0.30390150  0.75964745  0.38493785     0.14900
N796        N  0.34833791  0.82515412  0.36808629     0.74000
O797        O  0.41058079  0.63011717  0.36309312    -0.39500
O798        O  0.43409941  0.64620207  0.39946860    -0.39400
O799        O  0.32412061  0.83226957  0.34993202    -0.40100
O800        O  0.34625933  0.85010906  0.38626270    -0.40200
C801        C  0.38354725  0.49011980  0.35378678    -0.12500
C802        C  0.40922359  0.96862139  0.36625130     0.04500
C803        C  0.39801972  0.96933297  0.39134847    -0.07800
C804        C  0.36873376  0.99978735  0.39974523    -0.08500
C805        C  0.35051950  0.53042329  0.38668818    -0.03100
C806        C  0.35253890  0.51921000  0.36169825     0.03800
N807        N  0.32353519  0.53646878  0.34390219     0.66300
H808        H  0.38441204  0.48189216  0.33463704     0.15200
H809        H  0.36097865  0.00010032  0.41897178     0.14900
N810        N  0.41568488  0.93980780  0.40879963     0.74000
O811        O  0.33566093  0.56796590  0.33111677    -0.39500
O812        O  0.29417351  0.51242431  0.33571476    -0.39400
O813        O  0.44536997  0.95265202  0.42280807    -0.40100
O814        O  0.39299156  0.90838115  0.41551666    -0.40200
C815        C  0.13196815  0.50544779  0.40380470    -0.12500
C816        C  0.15628456  0.52704913  0.38606349     0.04500
C817        C  0.15208537  0.51468951  0.36132736    -0.07800
C818        C  0.12214197  0.48329989  0.35471453    -0.08500
C819        C  0.09244058  0.96208907  0.36948066    -0.03100
C820        C  0.09583876  0.97468847  0.39418077     0.03800
N821        N  0.06620219  0.95961760  0.41211907     0.66300
H822        H  0.13543209  0.51381867  0.42285921     0.15200
H823        H  0.11808313  0.47556441  0.33559206     0.14900
N824        N  0.17570760  0.53523330  0.34232442     0.74000
O825        O  0.07844801  0.93112316  0.42707404    -0.39500
O826        O  0.03425708  0.98297052  0.41749415    -0.39400
O827        O  0.20508198  0.51414886  0.33181895    -0.40100
O828        O  0.15848209  0.56643575  0.33114933    -0.40200
C829        C  0.28130150  0.47040933  0.50636720    -0.12500
C830        C  0.24376717  0.96328575  0.51953547     0.04500
C831        C  0.20592355  0.97933608  0.50838185    -0.07800
C832        C  0.20872520  0.01081941  0.49015218    -0.08500
C833        C  0.24769817  0.52777406  0.48287721    -0.03100
C834        C  0.28376912  0.50157936  0.48807602     0.03800
N835        N  0.32261938  0.50436397  0.47427267     0.66300
H836        H  0.30940855  0.45072212  0.50972115     0.15200
H837        H  0.17930187  0.02247615  0.48191967     0.14900
N838        N  0.16435445  0.96319457  0.51446155     0.74000
O839        O  0.35412919  0.52452104  0.48329660    -0.39500
O840        O  0.32960662  0.47647923  0.45792816    -0.39400
O841        O  0.14003057  0.98599339  0.52766089    -0.40100
O842        O  0.14781801  0.93462229  0.50097011    -0.40200
C843        C  0.29063771  0.75538209  0.51499233    -0.12500
C844        C  0.25279750  0.77972775  0.51789024     0.04500
C845        C  0.21725224  0.77112245  0.50243389    -0.07800
C846        C  0.21973949  0.73772708  0.48536658    -0.08500
C847        C  0.25733384  0.71303884  0.48283904    -0.03100
C848        C  0.29322753  0.72228071  0.49779760     0.03800
N849        N  0.33216762  0.69776725  0.49653199     0.66300
H850        H  0.31865416  0.76198329  0.52604011     0.15200
H851        H  0.19225772  0.73161132  0.47368683     0.14900
N852        N  0.17890015  0.79663032  0.50296955     0.74000
O853        O  0.36356987  0.71315971  0.48492343    -0.39500
O854        O  0.33935172  0.66961799  0.51270323    -0.39400
O855        O  0.17341679  0.82503899  0.48674072    -0.40100
O856        O  0.14659525  0.78263598  0.51433495    -0.40200
C857        C  0.11021249  0.71468007  0.61519455    -0.12500
C858        C  0.09622731  0.72137602  0.63932964     0.04500
C859        C  0.11428757  0.75562363  0.65293907    -0.07800
C860        C  0.14383338  0.78322676  0.64192251    -0.08500
C861        C  0.15620330  0.77776086  0.61743126    -0.03100
C862        C  0.13991275  0.74225324  0.60422415     0.03800
N863        N  0.15367459  0.73271883  0.57991844     0.66300
H864        H  0.09795064  0.68800824  0.60463519     0.15200
H865        H  0.15612893  0.80981216  0.65251174     0.14900
N866        N  0.10222125  0.76425743  0.67764906     0.74000
O867        O  0.18279648  0.70477276  0.57692074    -0.39500
O868        O  0.12866196  0.74124407  0.56232414    -0.39400
O869        O  0.12813904  0.75424810  0.69456819    -0.40100
O870        O  0.07410782  0.79281070  0.68169350    -0.40200
C871        C  0.35673409  0.77526881  0.64062155    -0.12500
C872        C  0.35168987  0.77857838  0.61523878     0.04500
C873        C  0.37556974  0.75096458  0.59986168    -0.07800
C874        C  0.40453475  0.72134428  0.61006788    -0.08500
C875        C  0.41089628  0.71935657  0.63543265    -0.03100
C876        C  0.38624120  0.74634227  0.65080364     0.03800
N877        N  0.39020319  0.74473339  0.67681254     0.66300
H878        H  0.33858009  0.79607748  0.65263565     0.15200
H879        H  0.42286330  0.70067609  0.59807483     0.14900
N880        N  0.36972220  0.75110790  0.57396475     0.74000
O881        O  0.41289256  0.77277345  0.68745588    -0.39500
O882        O  0.36183031  0.72510481  0.68887363    -0.39400
O883        O  0.39795461  0.76857055  0.56077844    -0.40100
O884        O  0.34521228  0.72324154  0.56457438    -0.40200
C885        C  0.34722062  0.97819061  0.63630357    -0.12500
C886        C  0.35494706  0.96185111  0.61275936     0.04500
C887        C  0.39107285  0.97669338  0.59969862    -0.07800
C888        C  0.42161244  0.50166385  0.61356424    -0.08500
C889        C  0.41122136  0.52124569  0.63595706    -0.03100
C890        C  0.37212749  0.50988537  0.64740504     0.03800
N891        N  0.35877738  0.52905852  0.66991248     0.66300
H892        H  0.31956436  0.96768111  0.64651366     0.15200
H893        H  0.45175037  0.50898952  0.60476074     0.14900
N894        N  0.40235575  0.95969430  0.57628895     0.74000
O895        O  0.33323773  0.56075309  0.66913871    -0.39500
O896        O  0.36049572  0.50666189  0.68914718    -0.39400
O897        O  0.39561338  0.98250104  0.55755661    -0.40100
O898        O  0.43021274  0.93004923  0.57525120    -0.40200
C899        C  0.16334697  0.50232557  0.61974129    -0.12500
C900        C  0.15441131  0.95814330  0.62009558     0.04500
C901        C  0.11679662  0.94565448  0.63236927    -0.07800
C902        C  0.08733821  0.97684147  0.64000996    -0.08500
C903        C  0.09366170  0.52188503  0.63732891    -0.03100
C904        C  0.13439110  0.53408559  0.62802260     0.03800
N905        N  0.14737018  0.57816787  0.62691024     0.66300
H906        H  0.19427690  0.51184001  0.61284595     0.15200
H907        H  0.05856141  0.96627718  0.64913045     0.14900
N908        N  0.10844248  0.90153276  0.63800800     0.74000
O909        O  0.17175557  0.59263912  0.64348787    -0.39500
O910        O  0.14625469  0.59715737  0.60651179    -0.39400
O911        O  0.11512401  0.88856704  0.65956929    -0.40100
O912        O  0.08310258  0.88054347  0.62443661    -0.40200
C913        C  0.13411161  0.58731061  0.76736319    -0.12500
C914        C  0.15801122  0.62552394  0.76986389     0.04500
C915        C  0.14885814  0.66023828  0.75387595    -0.07800
C916        C  0.11583714  0.65637445  0.73661966    -0.08500
C917        C  0.09183876  0.61840579  0.73449870    -0.03100
C918        C  0.10138282  0.58342242  0.74997091     0.03800
N919        N  0.07749950  0.54418788  0.74906319     0.66300
H920        H  0.14076163  0.55995381  0.77888015     0.15200
H921        H  0.10929702  0.68316547  0.72458283     0.14900
N922        N  0.17295761  0.69933413  0.75418728     0.74000
O923        O  0.09423405  0.51178580  0.73882375    -0.39500
O924        O  0.04802958  0.53837178  0.76451589    -0.39400
O925        O  0.20071922  0.70514586  0.73774151    -0.40100
O926        O  0.15705086  0.73181092  0.76475797    -0.40200
C927        C  0.36679304  0.66247745  0.76679789    -0.12500
C928        C  0.34001163  0.62628147  0.76891766     0.04500
C929        C  0.34516158  0.59212769  0.75188707    -0.07800
C930        C  0.37835258  0.59371788  0.73465956    -0.08500
C931        C  0.40549932  0.62951545  0.73306075    -0.03100
C932        C  0.39867105  0.66473823  0.74891790     0.03800
N933        N  0.42440594  0.70272491  0.74787587     0.66300
H934        H  0.36325638  0.68941790  0.77909358     0.15200
H935        H  0.38238631  0.56720548  0.72217201     0.14900
N936        N  0.31631165  0.55641218  0.75080284     0.74000
O937        O  0.40887346  0.73571035  0.73759868    -0.39500
O938        O  0.45390967  0.70757393  0.76356389    -0.39400
O939        O  0.28684553  0.55682851  0.73482480    -0.40100
O940        O  0.32866509  0.52062196  0.75927719    -0.40200
C941        C  0.46654118  0.99995368  0.98506627    -0.12500
C942        C  0.50282768  0.97319165  0.98393135     0.04500
C943        C  0.03557128  0.97933135  0.00074694    -0.07800
C944        C  0.03500980  0.50826050  0.01918732    -0.08500
C945        C  0.49739234  0.53564264  0.01992080    -0.03100
C946        C  0.46238837  0.52793727  0.00380624     0.03800
N947        N  0.42436070  0.55391822  0.00387363     0.66300
H948        H  0.44040399  0.99555340  0.97224900     0.15200
H949        H  0.06135858  0.51200178  0.03193732     0.14900
N950        N  0.07222160  0.95143326  0.00159872     0.74000
O951        O  0.42143503  0.58443051  0.98871315    -0.39500
O952        O  0.39026575  0.53821686  0.01251551    -0.39400
O953        O  0.10781827  0.96549722  0.99402863    -0.40100
O954        O  0.07228394  0.92081715  0.01677562    -0.40200
C955        C  0.46276670  0.74827369  0.01660126    -0.12500
C956        C  0.00026480  0.72255255  0.01918203     0.04500
C957        C  0.03610406  0.73108431  0.00407870    -0.07800
C958        C  0.03406004  0.76458805  0.98701618    -0.08500
C959        C  0.99685720  0.78995280  0.98455538    -0.03100
C960        C  0.46135544  0.78208506  0.99981045     0.03800
N961        N  0.42416522  0.80934020  0.99959749     0.66300
H962        H  0.43547359  0.74284443  0.02748337     0.15200
H963        H  0.06113631  0.77032581  0.97558961     0.14900
N964        N  0.07473351  0.70601687  0.00515871     0.74000
O965        O  0.39034482  0.79597559  0.98927358    -0.39500
O966        O  0.92043651  0.83797392  0.01538737    -0.39400
O967        O  0.57800810  0.67543260  0.98762651    -0.40100
O968        O  0.10658428  0.72079866  0.01681294    -0.40200
C969        C  0.16346784  0.73914408  0.89205792    -0.12500
C970        C  0.16368097  0.73319720  0.86654950     0.04500
C971        C  0.13396414  0.75646873  0.85209764    -0.07800
C972        C  0.10537737  0.78498708  0.86326000    -0.08500
C973        C  0.10574160  0.79160951  0.88871987    -0.03100
C974        C  0.13520674  0.76798275  0.90320641     0.03800
N975        N  0.13812305  0.77317211  0.92913017     0.66300
H976        H  0.18590786  0.72195183  0.90360868     0.15200
H977        H  0.08307256  0.80231903  0.85169418     0.14900
N978        N  0.13201407  0.75212648  0.82610748     0.74000
O979        O  0.16721369  0.79718094  0.93772394    -0.39500
O980        O  0.12248885  0.74429108  0.94263824    -0.40200
O981        O  0.14872379  0.78113385  0.81311336    -0.40100
O982        O  0.10305978  0.72870512  0.81686185    -0.40200
C983        C  0.36971229  0.74598579  0.85245399    -0.12500
C984        C  0.34609597  0.72235180  0.86960815     0.04500
C985        C  0.35503532  0.72864401  0.89478068    -0.07800
C986        C  0.38482569  0.76009990  0.90210194    -0.08500
C987        C  0.40749748  0.78460853  0.88490580    -0.03100
C988        C  0.40059840  0.77625420  0.85975892     0.03800
N989        N  0.42299924  0.79917860  0.84114805     0.66300
H990        H  0.36401552  0.74116422  0.83315836     0.15200
H991        H  0.39007760  0.76553050  0.92138277     0.14900
N992        N  0.33335922  0.70490537  0.91336732     0.74000
O993        O  0.45602063  0.78197566  0.83192776    -0.39500
O994        O  0.40236924  0.82645587  0.82862740    -0.39400
O995        O  0.35411331  0.67620050  0.92477251    -0.40100
O996        O  0.30094550  0.72168779  0.92348484    -0.40200
C997        C  0.38512270  0.49857230  0.89980716    -0.12500
C998        C  0.39990659  0.96636255  0.88418049     0.04500
C999        C  0.37620610  0.95760440  0.86269017    -0.07800
C1000       C  0.34787193  0.98836299  0.85336792    -0.08500
C1001       C  0.33594081  0.52439500  0.86829284    -0.03100
C1002       C  0.35593441  0.52953744  0.89141769     0.03800
N1003       N  0.34893434  0.56666359  0.90631854     0.66300
H1004       H  0.40055579  0.50335925  0.91730005     0.15200
H1005       H  0.32909408  0.98048787  0.83731073     0.14900
N1006       N  0.37860042  0.91696408  0.85060120     0.74000
O1007       O  0.32396311  0.56354306  0.92437100    -0.39500
O1008       O  0.37755959  0.59539037  0.90665901    -0.39400
O1009       O  0.34986091  0.88938581  0.85493730    -0.40100
O1010       O  0.39895719  0.91475650  0.83072127    -0.40200
C1011       C  0.09996376  0.97978688  0.86131631    -0.12500
C1012       C  0.09749261  0.97466169  0.88676392     0.04500
C1013       C  0.11594460  0.50484928  0.90383582    -0.07800
C1014       C  0.14501829  0.53438133  0.89385538    -0.08500
C1015       C  0.15062218  0.53750879  0.86848164    -0.03100
C1016       C  0.12949988  0.00820554  0.85083415     0.03800
N1017       N  0.13083193  0.01147311  0.82478276     0.66300
H1018       H  0.07995814  0.96044649  0.84938779     0.15200
H1019       H  0.16425340  0.55395093  0.90606129     0.14900
N1020       N  0.11019374  0.50437228  0.92973556     0.74000
O1021       O  0.15150916  0.98339843  0.81289552    -0.39500
O1022       O  0.09395957  0.54095826  0.81753017    -0.39400
O1023       O  0.15136980  0.97858994  0.93933138    -0.40100
O1024       O  0.08448752  0.53123337  0.93911944    -0.40200
O1025       O  0.93119238  0.42709438  0.91882714    -0.82000
C1026       C  0.57621295  0.32409706  0.89692227     0.97400
O1027       O  0.55439201  0.34743188  0.88262784    -0.71100
O1028       O  0.97275469  0.32512560  0.88399841    -0.74700
Al1029     Al  0.50203123  0.37872313  0.88618129     1.49000
C1030       C  0.93696713  0.31719221  0.89388132     0.92600
O1031       O  0.96450089  0.32875576  0.95390892    -0.80900
O1032       O  0.53694166  0.42764512  0.95443127    -0.74500
Al1033     Al  0.95157733  0.37759686  0.93511336     1.90100
O1034       O  0.53231278  0.34133624  0.96103137    -0.73600
O1035       O  0.57951492  0.41820107  0.91401958    -0.73400
O1036       O  0.57281591  0.32893162  0.91967769    -0.79100
O1037       O  0.53093156  0.43235799  0.88572309    -0.77300
O1038       O  0.50130276  0.37808648  0.91899082    -1.13400
O1039       O  0.94989254  0.40920223  0.88180283    -0.72600
C1040       C  0.92700335  0.43109930  0.89607219     0.98100
C1041       C  0.49785324  0.32153719  0.96557371     0.94500
Al1042     Al  0.55107696  0.37878381  0.93575355     1.55600
O1043       O  0.92415116  0.33887800  0.91219754    -0.77200
C1044       C  0.56558345  0.44154126  0.89669839     0.98700
C1045       C  0.00374056  0.43504337  0.96625303     0.93600
O1046       O  0.96928092  0.41548468  0.96097509    -0.82500
O1047       O  0.70322032  0.20075134  0.83035831    -0.82000
C1048       C  0.80851603  0.05736669  0.85532949     0.97400
O1049       O  0.78597494  0.07926760  0.86988678    -0.71100
O1050       O  0.80185705  0.16103277  0.86839637    -0.74700
Al1051     Al  0.75063273  0.12882541  0.86521089     1.49000
C1052       C  0.81140996  0.19532643  0.85753035     0.92600
O1053       O  0.80434712  0.16035017  0.79858755    -0.80900
O1054       O  0.70105610  0.09228056  0.79900129    -0.74500
Al1055     Al  0.75393200  0.17726319  0.81556949     1.90100
O1056       O  0.78714362  0.09379839  0.79022729    -0.73600
O1057       O  0.71334289  0.04860221  0.83874796    -0.73400
O1058       O  0.80092489  0.05772920  0.83265595    -0.79100
O1059       O  0.69885690  0.09683615  0.86671614    -0.77300
O1060       O  0.75179507  0.12800284  0.83246170    -1.13400
O1061       O  0.71594506  0.17858300  0.86763549    -0.72600
C1062       C  0.69533849  0.20224221  0.85295062     0.98100
C1063       C  0.81036125  0.12619807  0.78649262     0.94500
Al1064     Al  0.75075445  0.07758761  0.81661974     1.55600
O1065       O  0.79150682  0.20638113  0.83825666    -0.77200
C1066       C  0.69069511  0.06154374  0.85634162     0.98700
C1067       C  0.69458663  0.12530370  0.78611333     0.93600
O1068       O  0.71714257  0.15867894  0.78920373    -0.82500
O1069       O  0.82257729  0.41983888  0.58216219    -0.82000
C1070       C  0.68298237  0.31093328  0.60657743     0.97400
O1071       O  0.70337144  0.33567841  0.62084456    -0.71100
O1072       O  0.78562612  0.32003739  0.61837329    -0.74700
Al1073     Al  0.75247717  0.37129700  0.61653525     1.49000
C1074       C  0.81900414  0.31023168  0.60652957     0.92600
O1075       O  0.78359071  0.32039657  0.54919248    -0.80900
O1076       O  0.70970062  0.42178066  0.55197510    -0.74500
Al1077     Al  0.79901897  0.37009439  0.56675394     1.90100
O1078       O  0.71672180  0.33562468  0.54084779    -0.73600
O1079       O  0.66863076  0.40244174  0.59287977    -0.73400
O1080       O  0.68421183  0.31648617  0.58375785    -0.79100
O1081       O  0.71908217  0.42294244  0.61848107    -0.77300
O1082       O  0.75056291  0.37048911  0.58399900    -1.13400
O1083       O  0.80226359  0.40652960  0.61957698    -0.72600
C1084       C  0.82535041  0.42711270  0.60476947     0.98100
C1085       C  0.75001507  0.31339139  0.53697491     0.94500
Al1086     Al  0.69932423  0.36925680  0.56871489     1.55600
O1087       O  0.82982944  0.33143527  0.58784908    -0.77200
C1088       C  0.68135105  0.42655465  0.61005744     0.98700
C1089       C  0.74273629  0.43003400  0.53947308     0.93600
O1090       O  0.77697639  0.40815366  0.54224446    -0.82500
O1091       O  0.55461270  0.18892082  0.67010263    -0.82000
C1092       C  0.94380287  0.05113391  0.64463097     0.97400
O1093       O  0.96883901  0.07125464  0.63054820    -0.71100
O1094       O  0.95272275  0.15418047  0.63260881    -0.74700
Al1095     Al  0.50442172  0.12116081  0.63526061     1.49000
C1096       C  0.94461181  0.18916720  0.64351517     0.92600
O1097       O  0.95209340  0.15868809  0.70123320    -0.80900
O1098       O  0.55144899  0.08135675  0.70144539    -0.74500
Al1099     Al  0.00307126  0.17022467  0.68417858     1.90100
O1100       O  0.96445632  0.09076243  0.70961607    -0.73600
O1101       O  0.53573451  0.03971523  0.66087338    -0.73400
O1102       O  0.94801544  0.05427476  0.66747004    -0.79100
O1103       O  0.55644885  0.08807373  0.63428059    -0.77300
O1104       O  0.50256807  0.12076405  0.66782818    -1.13400
O1105       O  0.53965479  0.17077154  0.63241477    -0.72600
C1106       C  0.56202949  0.19161812  0.64761770     0.98100
C1107       C  0.94412640  0.12540823  0.71338803     0.94500
Al1108     Al  0.50037124  0.07063751  0.68365144     1.55600
O1109       O  0.96739538  0.20125555  0.66147033    -0.77200
C1110       C  0.56107233  0.05159365  0.64411510     0.98700
C1111       C  0.55931828  0.11484853  0.71364642     0.93600
O1112       O  0.53772593  0.14899104  0.71044185    -0.82500
O1113       O  0.81986074  0.06696608  0.41755413    -0.82000
C1114       C  0.67991181  0.17659487  0.39459329     0.97400
O1115       O  0.70265957  0.15470303  0.38035109    -0.71100
O1116       O  0.78578370  0.17126973  0.38351670    -0.74700
Al1117     Al  0.75198857  0.12014859  0.38454838     1.49000
C1118       C  0.82205906  0.17635392  0.39377204     0.92600
O1119       O  0.79109585  0.16821245  0.45237331    -0.80900
O1120       O  0.71564112  0.07018582  0.45173892    -0.74500
Al1121     Al  0.80236933  0.11758929  0.43380666     1.90100
O1122       O  0.72247460  0.15765901  0.45919481    -0.73600
O1123       O  0.67261996  0.08360869  0.41124571    -0.73400
O1124       O  0.68251633  0.17106523  0.41741278    -0.79100
O1125       O  0.71816334  0.06886492  0.38183230    -0.77300
O1126       O  0.75220712  0.11952769  0.41739382    -1.13400
O1127       O  0.80101452  0.08567760  0.38047663    -0.72600
C1128       C  0.82242951  0.06229219  0.39470713     0.98100
C1129       C  0.75709038  0.17750476  0.46373898     0.94500
Al1130     Al  0.70263769  0.12057367  0.43354823     1.55600
O1131       O  0.83294618  0.15312946  0.41165437    -0.77200
C1132       C  0.68298313  0.06172644  0.39262155     0.98700
C1133       C  0.74943841  0.06109866  0.46351092     0.93600
O1134       O  0.78359072  0.08150787  0.45963430    -0.82500
O1135       O  0.95335663  0.44448199  0.33757418    -0.82000
C1136       C  0.55712147  0.29935103  0.35683049     0.97400
O1137       O  0.53225446  0.31755540  0.37177108    -0.71100
O1138       O  0.55143527  0.39939240  0.37315849    -0.74700
Al1139     Al  0.99916871  0.37035252  0.36912483     1.49000
C1140       C  0.56090327  0.43446868  0.36292280     0.92600
O1141       O  0.55154242  0.40926558  0.30254052    -0.80900
O1142       O  0.94993817  0.34062121  0.30131915    -0.74500
Al1143     Al  0.50191006  0.42245720  0.32123731     1.90100
O1144       O  0.53560048  0.34340313  0.29219832    -0.73600
O1145       O  0.96381120  0.29337680  0.34011087    -0.73400
O1146       O  0.55152589  0.30364923  0.33403886    -0.79100
O1147       O  0.94603481  0.33973035  0.36871287    -0.77300
O1148       O  0.00077204  0.37332741  0.33624160    -1.13400
O1149       O  0.96711139  0.42098282  0.37444266    -0.72600
C1150       C  0.94697591  0.44553717  0.36026754     0.98100
C1151       C  0.55754290  0.37699781  0.28897439     0.94500
Al1152     Al  0.00048325  0.32498092  0.31862642     1.55600
O1153       O  0.54022365  0.44784966  0.34441838    -0.77200
C1154       C  0.93979752  0.30472377  0.35753157     0.98700
C1155       C  0.94174385  0.37556144  0.29039883     0.93600
O1156       O  0.96389252  0.40877810  0.29485416    -0.82500
O1157       O  0.56932552  0.17782053  0.08451917    -0.82000
C1158       C  0.92215611  0.07499561  0.10517442     0.97400
O1159       O  0.94418487  0.09742480  0.11992964    -0.71100
O1160       O  0.52666060  0.08054745  0.12085718    -0.74700
Al1161     Al  0.99461778  0.13186468  0.11720460     1.49000
C1162       C  0.56148316  0.07106186  0.11046227     0.92600
O1163       O  0.53025963  0.07857110  0.05162807    -0.80900
O1164       O  0.96268868  0.18340259  0.05163142    -0.74500
Al1165     Al  0.54636846  0.12833361  0.06902676     1.90100
O1166       O  0.96429957  0.09746369  0.04096316    -0.73600
O1167       O  0.91561705  0.16869104  0.08980532    -0.73400
O1168       O  0.92460397  0.08139830  0.08242364    -0.79100
O1169       O  0.96310182  0.18376710  0.11815610    -0.77300
O1170       O  0.99566331  0.13071670  0.08464591    -1.13400
O1171       O  0.54512496  0.16687123  0.12155474    -0.72600
C1172       C  0.56963964  0.18645348  0.10700952     0.98100
C1173       C  0.99647478  0.07325885  0.03829874     0.94500
Al1174     Al  0.94618140  0.13258302  0.06767396     1.55600
O1175       O  0.57370456  0.09078039  0.09164144    -0.77200
C1176       C  0.92793899  0.19145967  0.10752761     0.98700
C1177       C  0.49778744  0.18994121  0.03983901     0.93600
O1178       O  0.52991656  0.16562006  0.04293809    -0.82500
O1179       O  0.80169219  0.44871685  0.17059808    -0.82000
C1180       C  0.69058091  0.30867126  0.14714217     0.97400
O1181       O  0.71384465  0.33027911  0.13293806    -0.71100
O1182       O  0.69666717  0.41341561  0.13535117    -0.74700
Al1183     Al  0.74823525  0.38053982  0.13741934     1.49000
C1184       C  0.68993357  0.44924133  0.14564058     0.92600
O1185       O  0.69988227  0.41843180  0.20417482    -0.80900
O1186       O  0.79642743  0.34092465  0.20517433    -0.74500
Al1187     Al  0.75017602  0.43016664  0.18628937     1.90100
O1188       O  0.70979387  0.34952918  0.21126630    -0.73600
O1189       O  0.78376977  0.30012126  0.16423277    -0.73400
O1190       O  0.69545070  0.31157579  0.16990588    -0.79100
O1191       O  0.79961356  0.34820691  0.13617606    -0.77300
O1192       O  0.74827368  0.38023687  0.17010841    -1.13400
O1193       O  0.78275780  0.43054832  0.13358405    -0.72600
C1194       C  0.80678354  0.45158493  0.14783323     0.98100
C1195       C  0.69019904  0.38435177  0.21527023     0.94500
Al1196     Al  0.74647098  0.32996758  0.18620004     1.55600
O1197       O  0.71298661  0.46102516  0.16366234    -0.77200
C1198       C  0.80695811  0.31283510  0.14677216     0.98700
C1199       C  0.80575936  0.37461788  0.21682106     0.93600
O1200       O  0.78662542  0.40970861  0.21216225    -0.82500
C1201       C  0.64254203  0.21939329  0.10871637    -0.12500
C1202       C  0.59966649  0.21919912  0.11664381     0.04500
C1203       C  0.58632042  0.24939330  0.13438957    -0.07800
C1204       C  0.61625694  0.27815351  0.14457226    -0.08500
C1205       C  0.65923504  0.27800012  0.13676036    -0.03100
C1206       C  0.67226817  0.24849293  0.11859688     0.03800
N1207       N  0.71617150  0.24667861  0.11088723     0.66300
H1208       H  0.65330523  0.19598275  0.09515981     0.15200
H1209       H  0.60566050  0.30153103  0.15818939     0.14900
N1210       N  0.54194692  0.25268410  0.14100226     0.74000
O1211       O  0.74424392  0.23043857  0.12489927    -0.39500
O1212       O  0.72797524  0.26896629  0.09284609    -0.39400
O1213       O  0.52831822  0.23224145  0.15932132    -0.40100
O1214       O  0.51529482  0.26822143  0.12587605    -0.40200
C1215       C  0.89707866  0.23062278  0.14240642    -0.12500
C1216       C  0.89969512  0.22553320  0.11702070     0.04500
C1217       C  0.87355696  0.25124692  0.10167336    -0.07800
C1218       C  0.84519708  0.28107768  0.11192647    -0.08500
C1219       C  0.84100305  0.28457710  0.13731373    -0.03100
C1220       C  0.86748551  0.25924824  0.15265504     0.03800
N1221       N  0.86448485  0.26130830  0.17863661     0.66300
H1222       H  0.91663640  0.21095696  0.15437592     0.15200
H1223       H  0.82507716  0.30019102  0.09997121     0.14900
N1224       N  0.87530358  0.24798066  0.07566520     0.74000
O1225       O  0.84250767  0.23303579  0.18941093    -0.39500
O1226       O  0.89363157  0.28070439  0.19039340    -0.39400
O1227       O  0.84551384  0.22824543  0.06464394    -0.40100
O1228       O  0.89691445  0.27552478  0.06408966    -0.40200
C1229       C  0.83561757  0.49110969  0.11211302    -0.12500
C1230       C  0.83931735  0.48098795  0.13710917     0.04500
C1231       C  0.85548810  0.01551024  0.15177971    -0.07800
C1232       C  0.88393423  0.04411652  0.14066914    -0.08500
C1233       C  0.89250304  0.04230175  0.11544283    -0.03100
C1234       C  0.86327983  0.52048523  0.10091324     0.03800
N1235       N  0.85723764  0.52889774  0.07544441     0.66300
H1236       H  0.81060533  0.47676950  0.10109633     0.15200
H1237       H  0.89864331  0.06855421  0.15197453     0.14900
N1238       N  0.84700207  0.02097838  0.17725986     0.74000
O1239       O  0.87298957  0.50277779  0.06017536    -0.39500
O1240       O  0.85081593  0.01847162  0.06094873    -0.39400
O1241       O  0.87470552  0.00798880  0.19253718    -0.40100
O1242       O  0.82047204  0.04965893  0.18372349    -0.40200
C1243       C  0.63808193  0.01107848  0.15212286    -0.12500
C1244       C  0.65517741  0.47816667  0.13639701     0.04500
C1245       C  0.64519171  0.48123480  0.11115463    -0.07800
C1246       C  0.61422115  0.51070977  0.10302321    -0.08500
C1247       C  0.58947515  0.03735325  0.12055261    -0.03100
C1248       C  0.60708572  0.04103813  0.14413751     0.03800
N1249       N  0.59574493  0.07678226  0.15937721     0.66300
H1250       H  0.65206066  0.01506790  0.17019700     0.15200
H1251       H  0.60805076  0.51355174  0.08359321     0.14900
N1252       N  0.66771780  0.45670441  0.09315783     0.74000
O1253       O  0.56211325  0.07467684  0.17217390    -0.39500
O1254       O  0.61216198  0.11317193  0.15518628    -0.39400
O1255       O  0.64859368  0.42551037  0.08309731    -0.40100
O1256       O  0.69859406  0.47421411  0.08206754    -0.40200
C1257       C  0.61872368  0.41457583  0.26842455    -0.12500
C1258       C  0.59053377  0.37898640  0.26923219     0.04500
C1259       C  0.59470528  0.34662157  0.25098101    -0.07800
C1260       C  0.62732835  0.34943764  0.23360831    -0.08500
C1261       C  0.65543804  0.38436782  0.23327627    -0.03100
C1262       C  0.65076628  0.41757250  0.25053011     0.03800
N1263       N  0.67935383  0.45359929  0.25050812     0.66300
H1264       H  0.61630125  0.44014897  0.28196979     0.15200
H1265       H  0.63034621  0.32419481  0.21997769     0.14900
N1266       N  0.56569537  0.31119433  0.24900598     0.74000
O1267       O  0.66967725  0.48642126  0.23800358    -0.39500
O1268       O  0.71772970  0.44856028  0.25767131    -0.39400
O1269       O  0.53708182  0.31251666  0.23255140    -0.40100
O1270       O  0.57786853  0.27489015  0.25684032    -0.40200
C1271       C  0.86119335  0.41256072  0.24136071    -0.12500
C1272       C  0.83991737  0.37388959  0.23592812     0.04500
C1273       C  0.85175523  0.33632805  0.24900189    -0.07800
C1274       C  0.88473901  0.33805690  0.26650492    -0.08500
C1275       C  0.90638498  0.37667033  0.27184398    -0.03100
C1276       C  0.89378450  0.41443114  0.25910905     0.03800
N1277       N  0.91293833  0.45534627  0.26390472     0.66300
H1278       H  0.85269567  0.44166538  0.23173664     0.15200
H1279       H  0.89306586  0.30884763  0.27603805     0.14900
N1280       N  0.82979213  0.29633832  0.24580002     0.74000
O1281       O  0.89298744  0.48174838  0.27732497    -0.39500
O1282       O  0.94055470  0.46950253  0.24911668    -0.39400
O1283       O  0.84997741  0.26531452  0.23626259    -0.40100
O1284       O  0.79848502  0.28807541  0.25962982    -0.40200
C1285       C  0.63686316  0.24312508  0.39904624    -0.12500
C1286       C  0.65008856  0.20884972  0.38420519     0.04500
C1287       C  0.63470003  0.20646124  0.35979324    -0.07800
C1288       C  0.60563880  0.23725579  0.35113018    -0.08500
C1289       C  0.59129522  0.27069557  0.36623072    -0.03100
C1290       C  0.60811418  0.27418795  0.39026429     0.03800
N1291       N  0.59794892  0.30968920  0.40588296     0.66300
H1292       H  0.64913775  0.24618307  0.41737970     0.15200
H1293       H  0.59333154  0.23406419  0.33281267     0.14900
N1294       N  0.64653988  0.17226693  0.34360724     0.74000
O1295       O  0.57074319  0.30426082  0.42265902    -0.39500
O1296       O  0.62513880  0.33957649  0.40809358    -0.39400
O1297       O  0.62014595  0.14206641  0.34002578    -0.40100
O1298       O  0.67503389  0.17930129  0.32773700    -0.40200
C1299       C  0.92303763  0.24376849  0.38396037    -0.12500
C1300       C  0.90824863  0.27382551  0.36688884     0.04500
C1301       C  0.86548117  0.27143654  0.35832644    -0.07800
C1302       C  0.83798503  0.23960742  0.36741772    -0.08500
C1303       C  0.85252711  0.20943180  0.38474890    -0.03100
C1304       C  0.89599335  0.21157391  0.39284393     0.03800
N1305       N  0.91416999  0.18076976  0.40938834     0.66300
H1306       H  0.95606376  0.24479044  0.39009710     0.15200
H1307       H  0.80528648  0.23856829  0.36079995     0.14900
N1308       N  0.84928857  0.30047383  0.34024421     0.74000
O1309       O  0.93469648  0.14910263  0.40073747    -0.39500
O1310       O  0.92121442  0.19197436  0.43123465    -0.39400
O1311       O  0.84459885  0.28694805  0.31862275    -0.40100
O1312       O  0.82753343  0.33263739  0.34714296    -0.40200
C1313       C  0.89327432  0.99993968  0.35114551    -0.12500
C1314       C  0.91493933  0.47523932  0.37020538     0.04500
C1315       C  0.91590847  0.48996240  0.39465914    -0.07800
C1316       C  0.88375917  0.51736914  0.40298168    -0.08500
C1317       C  0.85112571  0.02961688  0.38435483    -0.03100
C1318       C  0.86484851  0.03096543  0.35971785     0.03800
N1319       N  0.85216259  0.06444114  0.34323902     0.66300
H1320       H  0.90425422  0.00231368  0.33247176     0.15200
H1321       H  0.88552710  0.52888747  0.42156444     0.14900
N1322       N  0.95140453  0.48195340  0.41063344     0.74000
O1323       O  0.87714290  0.09595959  0.34023285    -0.39500
O1324       O  0.82491664  0.05590823  0.32675645    -0.39400
O1325       O  0.97710247  0.51263797  0.41447085    -0.40100
O1326       O  0.94765395  0.45321427  0.42679050    -0.40200
C1327       C  0.62144158  0.01241615  0.40028045    -0.12500
C1328       C  0.65281224  0.02763156  0.38391488     0.04500
C1329       C  0.65277305  0.01127738  0.35972196    -0.07800
C1330       C  0.62238378  0.98028466  0.35266905    -0.08500
C1331       C  0.59689116  0.46090566  0.37191395    -0.03100
C1332       C  0.60246170  0.47191033  0.39675303     0.03800
N1333       N  0.57628632  0.45399423  0.41552362     0.66300
H1334       H  0.61995908  0.02490868  0.41867482     0.15200
H1335       H  0.62227600  0.96873162  0.33404647     0.14900
N1336       N  0.68119871  0.02746945  0.34148518     0.74000
O1337       O  0.59054966  0.42210940  0.42736785    -0.39500
O1338       O  0.54896474  0.47815782  0.42562428    -0.39400
O1339       O  0.71263541  0.00442108  0.33491712    -0.40100
O1340       O  0.66761134  0.05645089  0.32720082    -0.40200
C1341       C  0.78333841  0.97825637  0.51129944    -0.12500
C1342       C  0.74219856  0.46472469  0.52074321     0.04500
C1343       C  0.70577973  0.49085416  0.51556430    -0.07800
C1344       C  0.70767078  0.52161636  0.49686092    -0.08500
C1345       C  0.74857642  0.02701154  0.48249084    -0.03100
C1346       C  0.78644371  0.00951079  0.49309263     0.03800
N1347       N  0.82856421  0.02185161  0.48540885     0.66300
H1348       H  0.81276703  0.96566748  0.51908901     0.15200
H1349       H  0.67974271  0.54142983  0.49325221     0.14900
N1350       N  0.66665616  0.48734039  0.52902764     0.74000
O1351       O  0.84901226  0.04901423  0.49808091    -0.39500
O1352       O  0.84941022  0.99657755  0.47172858    -0.39400
O1353       O  0.65871041  0.51501588  0.54534401    -0.40100
O1354       O  0.63580016  0.46656487  0.51972861    -0.40200
C1355       C  0.78997158  0.25764132  0.51348548    -0.12500
C1356       C  0.75078643  0.27909666  0.51790445     0.04500
C1357       C  0.71428206  0.26703747  0.50397600    -0.07800
C1358       C  0.71745879  0.23383207  0.48671484    -0.08500
C1359       C  0.75659655  0.21246855  0.48233462    -0.03100
C1360       C  0.79330447  0.22495935  0.49592669     0.03800
N1361       N  0.83418344  0.20450282  0.49279711     0.66300
H1362       H  0.81850539  0.26625328  0.52357089     0.15200
H1363       H  0.68909644  0.22529049  0.47636939     0.14900
N1364       N  0.67369304  0.28824673  0.50652698     0.74000
O1365       O  0.86200006  0.22294995  0.47975961    -0.39500
O1366       O  0.84663187  0.17762188  0.50865116    -0.39400
O1367       O  0.66306792  0.31625930  0.49090276    -0.40100
O1368       O  0.64443711  0.26961132  0.51834146    -0.40200
C1369       C  0.61131387  0.21318042  0.61463264    -0.12500
C1370       C  0.59642980  0.21984944  0.63851523     0.04500
C1371       C  0.61330960  0.25436830  0.65234791    -0.07800
C1372       C  0.64263552  0.28244142  0.64167811    -0.08500
C1373       C  0.65559499  0.27725243  0.61729775    -0.03100
C1374       C  0.64051797  0.24140188  0.60394618     0.03800
N1375       N  0.65353308  0.23316537  0.57940710     0.66300
H1376       H  0.59970767  0.18630205  0.60392917     0.15200
H1377       H  0.65391589  0.30946115  0.65237234     0.14900
N1378       N  0.59965842  0.26314845  0.67676457     0.74000
O1379       O  0.68428564  0.20730405  0.57574382    -0.39500
O1380       O  0.62634420  0.23918051  0.56256299    -0.39400
O1381       O  0.62496141  0.25450160  0.69421472    -0.40100
O1382       O  0.57007354  0.29047248  0.68009832    -0.40200
C1383       C  0.85601935  0.27403014  0.64086727    -0.12500
C1384       C  0.84736128  0.27553373  0.61573771     0.04500
C1385       C  0.86757875  0.24540156  0.60015906    -0.07800
C1386       C  0.89834007  0.21673596  0.60967077    -0.08500
C1387       C  0.90913245  0.21718118  0.63463558    -0.03100
C1388       C  0.88635469  0.24515561  0.65042740     0.03800
N1389       N  0.89236951  0.24393218  0.67632348     0.66300
H1390       H  0.83992771  0.29609706  0.65312648     0.15200
H1391       H  0.91424205  0.19458191  0.59740461     0.14900
N1392       N  0.85577632  0.24176581  0.57496519     0.74000
O1393       O  0.91492286  0.27272684  0.68638204    -0.39500
O1394       O  0.86567705  0.22335990  0.68910028    -0.39400
O1395       O  0.88135812  0.25543393  0.55891002    -0.40100
O1396       O  0.82775519  0.21432058  0.56894834    -0.40200
C1397       C  0.84508146  0.48020579  0.63683624    -0.12500
C1398       C  0.85528843  0.46016765  0.61453988     0.04500
C1399       C  0.89418272  0.47125148  0.60287622    -0.07800
C1400       C  0.91876374  0.00621065  0.61012181    -0.08500
C1401       C  0.91138306  0.02186417  0.63385920    -0.03100
C1402       C  0.87470377  0.00757020  0.64665022     0.03800
N1403       N  0.86481042  0.02234887  0.67074642     0.66300
H1404       H  0.81545084  0.47241745  0.64603449     0.15200
H1405       H  0.94693902  0.01602102  0.60015889     0.14900
N1406       N  0.90841978  0.44963785  0.58129461     0.74000
O1407       O  0.83703169  0.05178390  0.67322883    -0.39500
O1408       O  0.87247622  0.99766490  0.68858379    -0.39400
O1409       O  0.90657011  0.46937372  0.56115200    -0.40100
O1410       O  0.93426418  0.41839511  0.58351663    -0.40200
C1411       C  0.66290263  0.00165395  0.61644657    -0.12500
C1412       C  0.65131889  0.45874688  0.62037457     0.04500
C1413       C  0.61040320  0.44676659  0.62902537    -0.07800
C1414       C  0.58224992  0.47803296  0.63819646    -0.08500
C1415       C  0.59456851  0.02081942  0.63560282    -0.03100
C1416       C  0.63328991  0.03325595  0.62396670     0.03800
N1417       N  0.64390156  0.07745647  0.62005905     0.66300
H1418       H  0.69207604  0.01127296  0.60737227     0.15200
H1419       H  0.55121449  0.46798013  0.64471157     0.14900
N1420       N  0.59673600  0.40287376  0.62891447     0.74000
O1421       O  0.66918113  0.09564532  0.63492805    -0.39500
O1422       O  0.63986500  0.09285216  0.59881335    -0.39400
O1423       O  0.59741794  0.38210916  0.64874109    -0.40100
O1424       O  0.57257675  0.39009516  0.61178797    -0.40200
C1425       C  0.64103055  0.08356138  0.76236352    -0.12500
C1426       C  0.66075379  0.12353586  0.76695770     0.04500
C1427       C  0.64761849  0.15966885  0.75302844    -0.07800
C1428       C  0.61479843  0.15538691  0.73576374    -0.08500
C1429       C  0.59471241  0.11571831  0.73157728    -0.03100
C1430       C  0.60850113  0.07925423  0.74486149     0.03800
N1431       N  0.58922061  0.03788916  0.74166080     0.66300
H1432       H  0.65071062  0.05517387  0.77239892     0.15200
H1433       H  0.60509091  0.18352814  0.72548849     0.14900
N1434       N  0.66634130  0.20125856  0.75605522     0.74000
O1435       O  0.60864717  0.01016496  0.72886317    -0.39500
O1436       O  0.56235346  0.02520516  0.75730824    -0.39400
O1437       O  0.69282806  0.21406060  0.74023705    -0.40100
O1438       O  0.64576858  0.22903722  0.76815938    -0.40200
C1439       C  0.87139408  0.16073209  0.76521394    -0.12500
C1440       C  0.84459536  0.12464215  0.76762752     0.04500
C1441       C  0.85133827  0.08883809  0.75187256    -0.07800
C1442       C  0.88400985  0.09015351  0.73441700    -0.08500
C1443       C  0.91027595  0.12635885  0.73204989    -0.03100
C1444       C  0.90394349  0.16190736  0.74771508     0.03800
N1445       N  0.93160631  0.19856394  0.74725667     0.66300
H1446       H  0.86756335  0.18819913  0.77710425     0.15200
H1447       H  0.88861507  0.06282780  0.72254159     0.14900
N1448       N  0.82576399  0.05071894  0.75298230     0.74000
O1449       O  0.91798702  0.23285967  0.73751611    -0.39500
O1450       O  0.96164021  0.20084452  0.76282025    -0.39400
O1451       O  0.79681570  0.04532070  0.73700926    -0.40100
O1452       O  0.84117590  0.01804730  0.76365384    -0.40200
C1453       C  0.96731544  0.49603737  0.98627060    -0.12500
C1454       C  0.00321641  0.46881078  0.98522391     0.04500
C1455       C  0.53674636  0.47640819  0.00077932    -0.07800
C1456       C  0.53406443  0.01247910  0.01803285    -0.08500
C1457       C  0.99658649  0.03921050  0.01932262    -0.03100
C1458       C  0.96248015  0.03289093  0.00238398     0.03800
N1459       N  0.92473973  0.05933460  0.00213374     0.66300
H1460       H  0.94118414  0.49194208  0.97339397     0.15200
H1461       H  0.56040119  0.01626060  0.03077793     0.14900
N1462       N  0.57468293  0.45023306  0.00055596     0.74000
O1463       O  0.92217552  0.08934625  0.98662998    -0.39500
O1464       O  0.89043929  0.04429352  0.01091549    -0.39400
O1465       O  0.60872919  0.46584181  0.99178299    -0.40100
O1466       O  0.57778901  0.41995940  0.01586482    -0.40200
C1467       C  0.96086970  0.24744962  0.01669728    -0.12500
C1468       C  0.49954575  0.22536027  0.02184151     0.04500
C1469       C  0.53763233  0.23689336  0.00934688    -0.07800
C1470       C  0.53601264  0.26829651  0.99114463    -0.08500
C1471       C  0.49748223  0.28955873  0.98539422    -0.03100
C1472       C  0.95984675  0.27982154  0.99911435     0.03800
N1473       N  0.92078476  0.30370767  0.99602064     0.66300
H1474       H  0.93128701  0.23973629  0.02604074     0.15200
H1475       H  0.56524972  0.27589258  0.98135064     0.14900
N1476       N  0.57847391  0.21794920  0.01493165     0.74000
O1477       O  0.89022113  0.28671245  0.98423641    -0.39500
O1478       O  0.41354373  0.33431956  0.01128573    -0.39400
O1479       O  0.09286459  0.18915972  0.00083747    -0.40100
O1480       O  0.60389550  0.23817415  0.02884247    -0.40200
C1481       C  0.66420777  0.23927909  0.88882685    -0.12500
C1482       C  0.66310195  0.23252531  0.86338746     0.04500
C1483       C  0.63199124  0.25501488  0.84942728    -0.07800
C1484       C  0.60409695  0.28414177  0.86090075    -0.08500
C1485       C  0.60589296  0.29149920  0.88628878    -0.03100
C1486       C  0.63614329  0.26799130  0.90032133     0.03800
N1487       N  0.63974164  0.27280154  0.92622567     0.66300
H1488       H  0.68744292  0.22260098  0.90011290     0.15200
H1489       H  0.58082243  0.30094604  0.84971663     0.14900
N1490       N  0.62735147  0.24876510  0.82370786     0.74000
O1491       O  0.66938777  0.29624615  0.93469878    -0.39500
O1492       O  0.62398369  0.24395556  0.93971651    -0.40200
O1493       O  0.64013058  0.27823669  0.80964782    -0.40100
O1494       O  0.59861352  0.22327850  0.81616322    -0.40200
C1495       C  0.87083582  0.24697844  0.85065346    -0.12500
C1496       C  0.84616668  0.22327382  0.86727725     0.04500
C1497       C  0.85463364  0.22802694  0.89260578    -0.07800
C1498       C  0.88507443  0.25812031  0.90066939    -0.08500
C1499       C  0.90879307  0.28275689  0.88405683    -0.03100
C1500       C  0.90246347  0.27585324  0.85871982     0.03800
N1501       N  0.92659780  0.29861911  0.84074571     0.66300
H1502       H  0.86559836  0.24309653  0.83123875     0.15200
H1503       H  0.88992009  0.26248775  0.92008616     0.14900
N1504       N  0.83180540  0.20404119  0.91062815     0.74000
O1505       O  0.95884503  0.28022232  0.83137903    -0.39500
O1506       O  0.90825072  0.32836090  0.82891802    -0.39400
O1507       O  0.85123189  0.17377327  0.92145340    -0.40100
O1508       O  0.79997625  0.22145923  0.92099737    -0.40200
C1509       C  0.89488538  0.00659096  0.89554418    -0.12500
C1510       C  0.89544614  0.46202794  0.88618142     0.04500
C1511       C  0.87540373  0.45657088  0.86315762    -0.07800
C1512       C  0.84650285  0.48751930  0.85455322    -0.08500
C1513       C  0.84200949  0.02833750  0.86497469    -0.03100
C1514       C  0.86682145  0.03771646  0.88604805     0.03800
N1515       N  0.86565437  0.07902035  0.89750165     0.66300
H1516       H  0.91370584  0.01404212  0.91165117     0.15200
H1517       H  0.83120270  0.48236029  0.83705917     0.14900
N1518       N  0.88167798  0.41880791  0.84871034     0.74000
O1519       O  0.84544381  0.08298226  0.91734417    -0.39500
O1520       O  0.89518142  0.10549172  0.89267347    -0.39400
O1521       O  0.85273969  0.39035916  0.84891009    -0.40100
O1522       O  0.90640795  0.42098894  0.83050996    -0.40200
C1523       C  0.59488720  0.48360465  0.86233528    -0.12500
C1524       C  0.59185953  0.47779291  0.88766740     0.04500
C1525       C  0.62434709  0.00016032  0.90197980    -0.07800
C1526       C  0.65296269  0.02954459  0.89152618    -0.08500
C1527       C  0.65638680  0.03365282  0.86609837    -0.03100
C1528       C  0.62404354  0.51294262  0.85239856     0.03800
N1529       N  0.62455383  0.51832507  0.82648093     0.66300
H1530       H  0.57564144  0.46413910  0.85006939     0.15200
H1531       H  0.67363058  0.04826932  0.90340460     0.14900
N1532       N  0.62242311  0.99764850  0.92803026     0.74000
O1533       O  0.64413219  0.49079689  0.81362968    -0.39500
O1534       O  0.59935881  0.03617804  0.81501112    -0.39400
O1535       O  0.63990402  0.48736582  0.94220990    -0.40100
O1536       O  0.60026934  0.02528810  0.93938106    -0.40200
O1537       O  0.93143263  0.93056825  0.91762322    -0.82000
C1538       C  0.57615253  0.82347068  0.89866788     0.97400
O1539       O  0.55416362  0.84571812  0.88395868    -0.71100
O1540       O  0.97147848  0.82725481  0.88391238    -0.74700
Al1541     Al  0.50347902  0.87913674  0.88656925     1.49000
C1542       C  0.93566567  0.81978030  0.89385684     0.92600
O1543       O  0.96306997  0.83202412  0.95382575    -0.80900
O1544       O  0.53804250  0.92993266  0.95458020    -0.74500
Al1545     Al  0.95082311  0.88097373  0.93452911     1.90100
O1546       O  0.53168796  0.84346421  0.96183267    -0.73600
O1547       O  0.58168812  0.91797909  0.91466762    -0.73400
O1548       O  0.57301270  0.82962625  0.92129862    -0.79100
O1549       O  0.53499509  0.93133795  0.88529303    -0.77300
O1550       O  0.50214462  0.87995562  0.91937547    -1.13400
O1551       O  0.95225628  0.91234943  0.88092588    -0.72600
C1552       C  0.92916018  0.93483501  0.89478263     0.98100
C1553       C  0.49700890  0.82379262  0.96590145     0.94500
Al1554     Al  0.55165942  0.88016184  0.93654738     1.55600
O1555       O  0.92303498  0.84218130  0.91188477    -0.77200
C1556       C  0.56965511  0.94003246  0.89641047     0.98700
C1557       C  0.00246082  0.93901987  0.96525797     0.93600
O1558       O  0.96819511  0.91912857  0.96014075    -0.82500
O1559       O  0.70316207  0.70007615  0.83343835    -0.82000
C1560       C  0.80416234  0.55426552  0.85856097     0.97400
O1561       O  0.78219887  0.57713924  0.87285844    -0.71100
O1562       O  0.80247009  0.65889518  0.87098841    -0.74700
Al1563     Al  0.74968670  0.62834272  0.86799499     1.49000
C1564       C  0.81178998  0.69343880  0.86015057     0.92600
O1565       O  0.80268068  0.65978618  0.80086132    -0.80900
O1566       O  0.69962311  0.59281257  0.80118432    -0.74500
Al1567     Al  0.75310520  0.67672819  0.81835924     1.90100
O1568       O  0.78611593  0.59284289  0.79292474    -0.73600
O1569       O  0.70953786  0.54983236  0.84129164    -0.73400
O1570       O  0.79777218  0.55572196  0.83576445    -0.79100
O1571       O  0.69649904  0.59851970  0.86934834    -0.77300
O1572       O  0.75063773  0.62745263  0.83513774    -1.13400
O1573       O  0.71747769  0.67945288  0.87076369    -0.72600
C1574       C  0.69630029  0.70244038  0.85606664     0.98100
C1575       C  0.80833697  0.62582573  0.78855655     0.94500
Al1576     Al  0.74858373  0.57718853  0.81925850     1.55600
O1577       O  0.79134464  0.70477296  0.84108646    -0.77200
C1578       C  0.68694674  0.56373752  0.85873898     0.98700
C1579       C  0.69310401  0.62616920  0.78860723     0.93600
O1580       O  0.71570010  0.65936324  0.79202407    -0.82500
O1581       O  0.82186853  0.92115892  0.58006570    -0.82000
C1582       C  0.68408008  0.81047198  0.60623657     0.97400
O1583       O  0.70590509  0.83436067  0.62029919    -0.71100
O1584       O  0.78829778  0.81941640  0.61655151    -0.74700
Al1585     Al  0.75486447  0.87029118  0.61546813     1.49000
C1586       C  0.82263177  0.81177040  0.60511900     0.92600
O1587       O  0.78478423  0.81983503  0.54872630    -0.80900
O1588       O  0.71070018  0.92141642  0.55109212    -0.74500
Al1589     Al  0.80000312  0.87027458  0.56538168     1.90100
O1590       O  0.71773299  0.83560730  0.54054511    -0.73600
O1591       O  0.67069832  0.90218666  0.59240142    -0.73400
O1592       O  0.68489259  0.81618369  0.58339854    -0.79100
O1593       O  0.72148393  0.92151531  0.61815276    -0.77300
O1594       O  0.75191552  0.87009965  0.58301447    -1.13400
O1595       O  0.80446561  0.90583808  0.61778891    -0.72600
C1596       C  0.82568300  0.92782044  0.60268265     0.98100
C1597       C  0.75096133  0.81340913  0.53656216     0.94500
Al1598     Al  0.70043520  0.86898767  0.56815353     1.55600
O1599       O  0.83284636  0.83378863  0.58666930    -0.77200
C1600       C  0.68385812  0.92560848  0.60973585     0.98700
C1601       C  0.74326062  0.92857436  0.53795317     0.93600
O1602       O  0.77714963  0.90626717  0.54038303    -0.82500
O1603       O  0.55397956  0.69106633  0.67169379    -0.82000
C1604       C  0.94358539  0.55170875  0.64652727     0.97400
O1605       O  0.96868902  0.57191204  0.63248753    -0.71100
O1606       O  0.95296069  0.65526970  0.63419657    -0.74700
Al1607     Al  0.50340824  0.62203468  0.63755405     1.49000
C1608       C  0.94548596  0.69082126  0.64463737     0.92600
O1609       O  0.95057631  0.66116872  0.70273661    -0.80900
O1610       O  0.54790891  0.58365935  0.70502501    -0.74500
Al1611     Al  0.00226675  0.67236833  0.68593193     1.90100
O1612       O  0.96193829  0.59308958  0.71124151    -0.73600
O1613       O  0.53487908  0.54123979  0.66411385    -0.73400
O1614       O  0.94755866  0.55521338  0.66934872    -0.79100
O1615       O  0.55549217  0.58912440  0.63712822    -0.77300
O1616       O  0.50104026  0.62248978  0.67014650    -1.13400
O1617       O  0.53860597  0.67182679  0.63428110    -0.72600
C1618       C  0.56107471  0.69339825  0.64910889     0.98100
C1619       C  0.94149722  0.62783860  0.71465385     0.94500
Al1620     Al  0.49782649  0.57263317  0.68625797     1.55600
O1621       O  0.96760952  0.70290799  0.66280230    -0.77200
C1622       C  0.56016826  0.55285362  0.64719568     0.98700
C1623       C  0.55660645  0.61763526  0.71662270     0.93600
O1624       O  0.53635565  0.65222098  0.71256182    -0.82500
O1625       O  0.81623036  0.56722613  0.41942838    -0.82000
C1626       C  0.67938744  0.67840062  0.39541066     0.97400
O1627       O  0.70139093  0.65591405  0.38105267    -0.71100
O1628       O  0.78314744  0.67301398  0.38546565    -0.74700
Al1629     Al  0.75091926  0.62148206  0.38571750     1.49000
C1630       C  0.81961900  0.67708292  0.39542092     0.92600
O1631       O  0.78809336  0.66861823  0.45310170    -0.80900
O1632       O  0.71249465  0.57053346  0.45255410    -0.74500
Al1633     Al  0.79959539  0.61806104  0.43517848     1.90100
O1634       O  0.71931869  0.65800479  0.46000474    -0.73600
O1635       O  0.67160952  0.58363010  0.41153998    -0.73400
O1636       O  0.68081430  0.67165427  0.41812468    -0.79100
O1637       O  0.71878499  0.56981445  0.38269147    -0.77300
O1638       O  0.75003636  0.62025561  0.41850902    -1.13400
O1639       O  0.80084099  0.58748382  0.38209496    -0.72600
C1640       C  0.82060119  0.56319620  0.39668131     0.98100
C1641       C  0.75403986  0.67777254  0.46439178     0.94500
Al1642     Al  0.70017293  0.62098456  0.43422013     1.55600
O1643       O  0.83108051  0.65311921  0.41291933    -0.77200
C1644       C  0.68405433  0.56127463  0.39348606     0.98700
C1645       C  0.74611746  0.56168148  0.46449804     0.93600
O1646       O  0.78018507  0.58246790  0.46105605    -0.82500
O1647       O  0.94920750  0.93725710  0.33426411    -0.82000
C1648       C  0.55380237  0.79568131  0.35519704     0.97400
O1649       O  0.53099381  0.81729532  0.36972288    -0.71100
O1650       O  0.55017869  0.90041389  0.36991178    -0.74700
Al1651     Al  0.99711521  0.86705782  0.36729864     1.49000
C1652       C  0.55765900  0.93620486  0.35975792     0.92600
O1653       O  0.55090033  0.90645150  0.30025354    -0.80900
O1654       O  0.94761855  0.83414539  0.30000441    -0.74500
Al1655     Al  0.50025525  0.92009961  0.31802784     1.90100
O1656       O  0.53486811  0.84010076  0.29040031    -0.73600
O1657       O  0.96104640  0.78922350  0.33976966    -0.73400
O1658       O  0.54946003  0.79979047  0.33231418    -0.79100
O1659       O  0.94368651  0.83733695  0.36752579    -0.77300
O1660       O  0.99875413  0.86798850  0.33448133    -1.13400
O1661       O  0.96505695  0.91769444  0.37157179    -0.72600
C1662       C  0.94229982  0.93887823  0.35694084     0.98100
C1663       C  0.55730080  0.87342196  0.28725303     0.94500
Al1664     Al  0.99808019  0.81881191  0.31768035     1.55600
O1665       O  0.53666095  0.94814476  0.34113581    -0.77200
C1666       C  0.93733211  0.80172056  0.35711423     0.98700
C1667       C  0.94034658  0.86857867  0.28840688     0.93600
O1668       O  0.96341459  0.90126467  0.29213825    -0.82500
O1669       O  0.56940985  0.67723483  0.08267948    -0.82000
C1670       C  0.92411627  0.57528544  0.10486986     0.97400
O1671       O  0.94635331  0.59742045  0.11963172    -0.71100
O1672       O  0.52789504  0.57924637  0.11963235    -0.74700
Al1673     Al  0.99695577  0.63169312  0.11654303     1.49000
C1674       C  0.56320726  0.57059396  0.10951419     0.92600
O1675       O  0.53087714  0.57645329  0.05124817    -0.80900
O1676       O  0.96552534  0.68202692  0.04985501    -0.74500
Al1677     Al  0.54702974  0.62707973  0.06780199     1.90100
O1678       O  0.96702417  0.59522340  0.04101966    -0.73600
O1679       O  0.91900314  0.67048153  0.08847197    -0.73400
O1680       O  0.92610917  0.58236461  0.08220309    -0.79100
O1681       O  0.96552600  0.68387696  0.11762828    -0.77300
O1682       O  0.99803215  0.63061049  0.08389105    -1.13400
O1683       O  0.54672788  0.66562942  0.12007545    -0.72600
C1684       C  0.57051962  0.68546282  0.10522530     0.98100
C1685       C  0.99951218  0.57125964  0.03845704     0.94500
Al1686     Al  0.94874612  0.63238027  0.06687250     1.55600
O1687       O  0.57519795  0.59091187  0.09084307    -0.77200
C1688       C  0.93116790  0.69287729  0.10643405     0.98700
C1689       C  0.49836291  0.68710892  0.03745875     0.93600
O1690       O  0.53051294  0.66292158  0.04084557    -0.82500
O1691       O  0.79856745  0.94825682  0.17042853    -0.82000
C1692       C  0.69075277  0.80769455  0.14470277     0.97400
O1693       O  0.71383617  0.82980233  0.13066237    -0.71100
O1694       O  0.69419578  0.91229328  0.13472189    -0.74700
Al1695     Al  0.74688576  0.88067232  0.13596525     1.49000
C1696       C  0.68697497  0.94759885  0.14551860     0.92600
O1697       O  0.69826151  0.91354562  0.20321911    -0.80900
O1698       O  0.79631117  0.83794553  0.20269678    -0.74500
Al1699     Al  0.74796765  0.92744094  0.18570085     1.90100
O1700       O  0.71001714  0.84461163  0.20939013    -0.73600
O1701       O  0.78455149  0.79957998  0.16110373    -0.73400
O1702       O  0.69589654  0.80945739  0.16743902    -0.79100
O1703       O  0.79943105  0.84966851  0.13399680    -0.77300
O1704       O  0.74727479  0.87850243  0.16861407    -1.13400
O1705       O  0.77979039  0.93194589  0.13307846    -0.72600
C1706       C  0.80302165  0.95301716  0.14773909     0.98100
C1707       C  0.68993702  0.87888755  0.21402482     0.94500
Al1708     Al  0.74665381  0.82732632  0.18375306     1.55600
O1709       O  0.71021574  0.95878783  0.16360428    -0.77200
C1710       C  0.80792049  0.81406881  0.14414060     0.98700
C1711       C  0.80455047  0.87091866  0.21518450     0.93600
O1712       O  0.78484345  0.90600742  0.21121403    -0.82500
C1713       C  0.64395264  0.71648565  0.10779472    -0.12500
C1714       C  0.60050240  0.71817461  0.11457740     0.04500
C1715       C  0.58644124  0.75006877  0.13111094    -0.07800
C1716       C  0.61611710  0.77925908  0.14100113    -0.08500
C1717       C  0.65957522  0.77735623  0.13425282    -0.03100
C1718       C  0.67353525  0.74574564  0.11757767     0.03800
N1719       N  0.71815137  0.74186312  0.11157222     0.66300
H1720       H  0.65520521  0.69141183  0.09533018     0.15200
H1721       H  0.60509379  0.80403485  0.15371732     0.14900
N1722       N  0.54183259  0.75397213  0.13708857     0.74000
O1723       O  0.74393977  0.72592528  0.12703883    -0.39500
O1724       O  0.73286399  0.76285669  0.09373366    -0.39400
O1725       O  0.52755178  0.73514721  0.15580281    -0.40100
O1726       O  0.51572533  0.76798528  0.12119930    -0.40200
C1727       C  0.90170982  0.73557016  0.14069670    -0.12500
C1728       C  0.90353134  0.72823156  0.11544609     0.04500
C1729       C  0.87705654  0.75307293  0.09977989    -0.07800
C1730       C  0.84776050  0.78262706  0.10958041    -0.08500
C1731       C  0.84369997  0.78750376  0.13487972    -0.03100
C1732       C  0.87196103  0.76468480  0.15048942     0.03800
N1733       N  0.87032558  0.76945579  0.17638160     0.66300
H1734       H  0.92200929  0.71736262  0.15296857     0.15200
H1735       H  0.82701913  0.80049924  0.09738981     0.14900
N1736       N  0.88028436  0.75013368  0.07383874     0.74000
O1737       O  0.85251246  0.74007911  0.18855660    -0.39500
O1738       O  0.89777105  0.79323671  0.18677893    -0.39400
O1739       O  0.85236738  0.72870782  0.06227484    -0.40100
O1740       O  0.90046295  0.77936663  0.06277184    -0.40200
C1741       C  0.84390136  0.98124001  0.11244403    -0.12500
C1742       C  0.83491151  0.98351911  0.13760094     0.04500
C1743       C  0.87303961  0.49991303  0.15076039    -0.07800
C1744       C  0.90040400  0.52973128  0.13963255    -0.08500
C1745       C  0.89556299  0.54121717  0.11486998    -0.03100
C1746       C  0.87210992  0.01010464  0.10127965     0.03800
N1747       N  0.87950349  0.00551566  0.07563895     0.66300
H1748       H  0.82888642  0.95694417  0.10117021     0.15200
H1749       H  0.92556944  0.54395370  0.15059326     0.14900
N1750       N  0.88100048  0.48889332  0.17574450     0.74000
O1751       O  0.90585691  0.97716243  0.06852116    -0.39500
O1752       O  0.82625201  0.55268501  0.06888282    -0.39400
O1753       O  0.91132123  0.46306099  0.18060151    -0.40100
O1754       O  0.86802614  0.51417296  0.19225452    -0.40200
C1755       C  0.63208863  0.50421377  0.15297190    -0.12500
C1756       C  0.65174846  0.97693555  0.13685506     0.04500
C1757       C  0.63244030  0.97304124  0.11333723    -0.07800
C1758       C  0.60207462  0.00342316  0.10544932    -0.08500
C1759       C  0.59192732  0.53699195  0.11945551    -0.03100
C1760       C  0.60033389  0.53320876  0.14468318     0.03800
N1761       N  0.57845811  0.56027010  0.16182120     0.66300
H1762       H  0.63898072  0.50227909  0.17242063     0.15200
H1763       H  0.58873953  0.00088114  0.08718927     0.14900
N1764       N  0.64416947  0.93978309  0.09656492     0.74000
O1765       O  0.54267584  0.54832675  0.17023929    -0.39500
O1766       O  0.58910637  0.59936125  0.16365707    -0.39400
O1767       O  0.61856742  0.90873569  0.09350672    -0.40100
O1768       O  0.67027740  0.94869298  0.07970719    -0.40200
C1769       C  0.62255488  0.90689151  0.26889617    -0.12500
C1770       C  0.59128879  0.87404375  0.26816886     0.04500
C1771       C  0.59342699  0.84296156  0.24908015    -0.07800
C1772       C  0.62601195  0.84529840  0.23169468    -0.08500
C1773       C  0.65643339  0.87808656  0.23256165    -0.03100
C1774       C  0.65505142  0.90897930  0.25129174     0.03800
N1775       N  0.68764896  0.94129770  0.25310903     0.66300
H1776       H  0.62222343  0.93081402  0.28344825     0.15200
H1777       H  0.62717058  0.82155406  0.21713774     0.14900
N1778       N  0.56255049  0.80930292  0.24636958     0.74000
O1779       O  0.68174710  0.97717748  0.24276504    -0.39500
O1780       O  0.72526697  0.93054775  0.25953513    -0.39400
O1781       O  0.53388814  0.81331950  0.23008463    -0.40100
O1782       O  0.57293537  0.77186475  0.25325213    -0.40200
C1783       C  0.86003487  0.90748840  0.23999190    -0.12500
C1784       C  0.83830054  0.86927115  0.23437521     0.04500
C1785       C  0.84940562  0.83126617  0.24726910    -0.07800
C1786       C  0.88275618  0.83201622  0.26456275    -0.08500
C1787       C  0.90498057  0.87019709  0.26998753    -0.03100
C1788       C  0.89259377  0.90850137  0.25769913     0.03800
N1789       N  0.91141617  0.94929148  0.26322354     0.66300
H1790       H  0.85177063  0.93690173  0.23065251     0.15200
H1791       H  0.89064808  0.80262546  0.27400284     0.14900
N1792       N  0.82585096  0.79210160  0.24445221     0.74000
O1793       O  0.89178988  0.97424714  0.27764751    -0.39500
O1794       O  0.93794492  0.96510464  0.24833677    -0.39400
O1795       O  0.84493443  0.75990442  0.23546241    -0.40100
O1796       O  0.79429562  0.78559432  0.25840697    -0.40200
C1797       C  0.61129538  0.71856229  0.39806731    -0.12500
C1798       C  0.64943304  0.71074146  0.38530847     0.04500
C1799       C  0.65612127  0.73134463  0.36255556    -0.07800
C1800       C  0.62417693  0.75828145  0.35280030    -0.08500
C1801       C  0.58582346  0.76564893  0.36552412    -0.03100
C1802       C  0.57960700  0.74559897  0.38845234     0.03800
N1803       N  0.54059842  0.75051998  0.40193304     0.66300
H1804       H  0.60534969  0.70268024  0.41516956     0.15200
H1805       H  0.62981369  0.77413365  0.33566691     0.14900
N1806       N  0.69573834  0.72720391  0.34955812     0.74000
O1807       O  0.51259897  0.72127271  0.40047126    -0.39500
O1808       O  0.54038491  0.77523114  0.42027617    -0.39400
O1809       O  0.69681997  0.70385063  0.33066167    -0.40100
O1810       O  0.72387118  0.75608644  0.35223299    -0.40200
C1811       C  0.92136536  0.73102530  0.37398987    -0.12500
C1812       C  0.90580642  0.77151570  0.36703338     0.04500
C1813       C  0.86164408  0.78109094  0.36959368    -0.07800
C1814       C  0.83388637  0.74966287  0.37880802    -0.08500
C1815       C  0.84976552  0.70934213  0.38614077    -0.03100
C1816       C  0.89410080  0.70023779  0.38392243     0.03800
N1817       N  0.91194911  0.65940707  0.39066947     0.66300
H1818       H  0.95497143  0.72325544  0.37167837     0.15200
H1819       H  0.80001120  0.75690123  0.38044116     0.14900
N1820       N  0.84392632  0.82145344  0.36201278     0.74000
O1821       O  0.91869268  0.63173037  0.37418627    -0.39500
O1822       O  0.93210094  0.65625919  0.41068640    -0.39400
O1823       O  0.82378265  0.82321112  0.34194216    -0.40100
O1824       O  0.83614217  0.84958261  0.37807165    -0.40200
C1825       C  0.88240376  0.48952824  0.35447352    -0.12500
C1826       C  0.90892422  0.96758811  0.36658196     0.04500
C1827       C  0.89410254  0.96534325  0.39101849    -0.07800
C1828       C  0.86550127  0.99636621  0.39958633    -0.08500
C1829       C  0.85135312  0.53182269  0.38718360    -0.03100
C1830       C  0.85121003  0.51819247  0.36256263     0.03800
N1831       N  0.81951850  0.53218210  0.34537915     0.66300
H1832       H  0.88116785  0.47871957  0.33573624     0.15200
H1833       H  0.85461764  0.99433978  0.41828949     0.14900
N1834       N  0.90703023  0.93191452  0.40748699     0.74000
O1835       O  0.82843496  0.56323925  0.33143006    -0.39500
O1836       O  0.79160097  0.50535670  0.33854005    -0.39400
O1837       O  0.93509319  0.94027464  0.42354390    -0.40100
O1838       O  0.88144761  0.90116646  0.41122472    -0.40200
C1839       C  0.63207545  0.50382418  0.40325162    -0.12500
C1840       C  0.65706360  0.52462502  0.38551998     0.04500
C1841       C  0.65387188  0.51090120  0.36093965    -0.07800
C1842       C  0.62369339  0.47962632  0.35440654    -0.08500
C1843       C  0.59143515  0.96521873  0.36911435    -0.03100
C1844       C  0.59068217  0.98199188  0.39304028     0.03800
N1845       N  0.55671110  0.97177277  0.40954839     0.66300
H1846       H  0.63478333  0.51300753  0.42222593     0.15200
H1847       H  0.62022572  0.47096439  0.33537804     0.14900
N1848       N  0.67909391  0.52945311  0.34196935     0.74000
O1849       O  0.56408329  0.94574686  0.42678671    -0.39500
O1850       O  0.52533623  0.99752936  0.41130868    -0.39400
O1851       O  0.70736922  0.50618083  0.33201036    -0.40100
O1852       O  0.66343606  0.56048993  0.32995051    -0.40200
C1853       C  0.77980146  0.47096053  0.50699831    -0.12500
C1854       C  0.74326846  0.96317482  0.51933950     0.04500
C1855       C  0.70546300  0.98032521  0.50867835    -0.07800
C1856       C  0.70846434  0.01192360  0.49052649    -0.08500
C1857       C  0.74536732  0.52763562  0.48331279    -0.03100
C1858       C  0.78177358  0.50190690  0.48857615     0.03800
N1859       N  0.82070798  0.50529140  0.47489009     0.66300
H1860       H  0.80810446  0.45152932  0.51030755     0.15200
H1861       H  0.67909843  0.02456335  0.48270268     0.14900
N1862       N  0.66370758  0.96519447  0.51516388     0.74000
O1863       O  0.85174719  0.52609236  0.48397152    -0.39500
O1864       O  0.82834811  0.47753162  0.45857352    -0.39400
O1865       O  0.64041285  0.98847968  0.52868550    -0.40100
O1866       O  0.64600012  0.93720280  0.50175977    -0.40200
C1867       C  0.78828069  0.75462843  0.51467949    -0.12500
C1868       C  0.75089661  0.77960350  0.51752914     0.04500
C1869       C  0.71515135  0.77151656  0.50210940    -0.07800
C1870       C  0.71690279  0.73775444  0.48522920    -0.08500
C1871       C  0.75411755  0.71250674  0.48273171    -0.03100
C1872       C  0.79028418  0.72144672  0.49755204     0.03800
N1873       N  0.82913047  0.69683038  0.49601417     0.66300
H1874       H  0.81646624  0.76092222  0.52563831     0.15200
H1875       H  0.68932097  0.73198785  0.47356849     0.14900
N1876       N  0.67758300  0.79819540  0.50230987     0.74000
O1877       O  0.86009787  0.71186015  0.48388549    -0.39500
O1878       O  0.83685652  0.66897958  0.51227144    -0.39400
O1879       O  0.67324298  0.82649094  0.48590941    -0.40100
O1880       O  0.64470596  0.78550470  0.51364319    -0.40200
C1881       C  0.60908397  0.71492514  0.61517374    -0.12500
C1882       C  0.59526882  0.72175021  0.63933334     0.04500
C1883       C  0.61331614  0.75619197  0.65279551    -0.07800
C1884       C  0.64310435  0.78349229  0.64171577    -0.08500
C1885       C  0.65545426  0.77777956  0.61723377    -0.03100
C1886       C  0.63874284  0.74240558  0.60407432     0.03800
N1887       N  0.65188462  0.73300588  0.57963885     0.66300
H1888       H  0.59666456  0.68825899  0.60467559     0.15200
H1889       H  0.65552372  0.81011256  0.65221953     0.14900
N1890       N  0.60076377  0.76551754  0.67734807     0.74000
O1891       O  0.68062272  0.70477595  0.57633076    -0.39500
O1892       O  0.62659501  0.74202662  0.56224928    -0.39400
O1893       O  0.62642857  0.75622166  0.69451990    -0.40100
O1894       O  0.57238136  0.79400052  0.68093405    -0.40200
C1895       C  0.85711316  0.77506158  0.63997290    -0.12500
C1896       C  0.85235534  0.77860504  0.61457771     0.04500
C1897       C  0.87704619  0.75165499  0.59921402    -0.07800
C1898       C  0.90603446  0.72208978  0.60946590    -0.08500
C1899       C  0.91187215  0.71970796  0.63485781    -0.03100
C1900       C  0.88684785  0.74639961  0.65019210     0.03800
N1901       N  0.89073911  0.74483032  0.67620374     0.66300
H1902       H  0.83857651  0.79553290  0.65198362     0.15200
H1903       H  0.92483809  0.70181411  0.59749456     0.14900
N1904       N  0.87224381  0.75257928  0.57325410     0.74000
O1905       O  0.91344590  0.77285884  0.68684642    -0.39500
O1906       O  0.86232999  0.72524501  0.68825777    -0.39400
O1907       O  0.90071808  0.77096903  0.56065260    -0.40100
O1908       O  0.84870750  0.72454953  0.56323788    -0.40200
C1909       C  0.84684581  0.97801361  0.63566899    -0.12500
C1910       C  0.85491550  0.96143104  0.61221344     0.04500
C1911       C  0.89137132  0.97598811  0.59934487    -0.07800
C1912       C  0.92142075  0.50200397  0.61342184    -0.08500
C1913       C  0.91150876  0.52168146  0.63584121    -0.03100
C1914       C  0.87267031  0.51045449  0.64760546     0.03800
N1915       N  0.85993660  0.52964837  0.67022030     0.66300
H1916       H  0.81899144  0.96766345  0.64575637     0.15200
H1917       H  0.95138421  0.50921731  0.60440816     0.14900
N1918       N  0.90319643  0.95848052  0.57614179     0.74000
O1919       O  0.83436543  0.56133100  0.66966591    -0.39500
O1920       O  0.86218234  0.50724794  0.68943700    -0.39400
O1921       O  0.89731270  0.98104739  0.55722680    -0.40100
O1922       O  0.93076245  0.92852283  0.57554556    -0.40200
C1923       C  0.66297425  0.50235360  0.62079417    -0.12500
C1924       C  0.65439901  0.95785578  0.62000818     0.04500
C1925       C  0.61630305  0.94545956  0.63183134    -0.07800
C1926       C  0.58705553  0.97676524  0.63957368    -0.08500
C1927       C  0.59313081  0.52186459  0.63818237    -0.03100
C1928       C  0.63401099  0.53406916  0.62911228     0.03800
N1929       N  0.64718424  0.57811427  0.62835559     0.66300
H1930       H  0.69400039  0.51189673  0.61404578     0.15200
H1931       H  0.55798912  0.96628454  0.64843417     0.14900
N1932       N  0.60704051  0.90124338  0.63671865     0.74000
O1933       O  0.67128877  0.59217087  0.64518075    -0.39500
O1934       O  0.64652289  0.59751357  0.60807826    -0.39400
O1935       O  0.61252404  0.88723722  0.65817254    -0.40100
O1936       O  0.58202673  0.88124857  0.62247704    -0.40200
C1937       C  0.63514548  0.58679909  0.76697154    -0.12500
C1938       C  0.65877690  0.62513461  0.76964194     0.04500
C1939       C  0.64901248  0.66017269  0.75399271    -0.07800
C1940       C  0.61558406  0.65651453  0.73696268    -0.08500
C1941       C  0.59174592  0.61844106  0.73472409    -0.03100
C1942       C  0.60200548  0.58311716  0.74981288     0.03800
N1943       N  0.57849867  0.54367172  0.74873521     0.66300
H1944       H  0.64230030  0.55917489  0.77820030     0.15200
H1945       H  0.60862074  0.68357261  0.72518301     0.14900
N1946       N  0.67286867  0.69941860  0.75442583     0.74000
O1947       O  0.59541031  0.51166011  0.73819935    -0.39500
O1948       O  0.54929821  0.53723221  0.76427091    -0.39400
O1949       O  0.70002635  0.70592132  0.73774049    -0.40100
O1950       O  0.65711298  0.73146419  0.76547638    -0.40200
C1951       C  0.86775135  0.66184585  0.76650985    -0.12500
C1952       C  0.84122183  0.62549658  0.76881163     0.04500
C1953       C  0.84662495  0.59111933  0.75194254    -0.07800
C1954       C  0.87967783  0.59278185  0.73462595    -0.08500
C1955       C  0.90643468  0.62882699  0.73277398    -0.03100
C1956       C  0.89950027  0.66413103  0.74854975     0.03800
N1957       N  0.92506991  0.70221151  0.74736120     0.66300
H1958       H  0.86409523  0.68889892  0.77871548     0.15200
H1959       H  0.88391465  0.56613493  0.72227923     0.14900
N1960       N  0.81818981  0.55504839  0.75112539     0.74000
O1961       O  0.90935398  0.73507309  0.73704631    -0.39500
O1962       O  0.95475746  0.70723558  0.76291848    -0.39400
O1963       O  0.78857590  0.55486249  0.73523558    -0.40100
O1964       O  0.83104345  0.51953997  0.75974503    -0.40200
C1965       C  0.96534195  0.99993832  0.98502281    -0.12500
C1966       C  0.00157853  0.97312004  0.98392628     0.04500
C1967       C  0.53696769  0.97972833  0.00063805    -0.07800
C1968       C  0.53407382  0.50924706  0.01817520    -0.08500
C1969       C  0.99934075  0.53615664  0.02003843    -0.03100
C1970       C  0.96517075  0.52973803  0.00318111     0.03800
N1971       N  0.92855767  0.55764058  0.00212664     0.66300
H1972       H  0.93926706  0.99564443  0.97215232     0.15200
H1973       H  0.56113893  0.51394553  0.03033848     0.14900
N1974       N  0.57389103  0.95218016  0.00135204     0.74000
O1975       O  0.92854168  0.58811289  0.98686047    -0.39500
O1976       O  0.89300013  0.54399001  0.00998420    -0.39400
O1977       O  0.60924381  0.96657717  0.99361815    -0.40100
O1978       O  0.57446680  0.92161708  0.01656187    -0.40200
C1979       C  0.96310416  0.74819742  0.01658242    -0.12500
C1980       C  0.49946208  0.72188792  0.01891250     0.04500
C1981       C  0.53510940  0.72968103  0.00354727    -0.07800
C1982       C  0.53349236  0.76340962  0.98662046    -0.08500
C1983       C  0.49679284  0.78956504  0.98446785    -0.03100
C1984       C  0.96136077  0.78194007  0.99975778     0.03800
N1985       N  0.92384178  0.80872609  0.99944227     0.66300
H1986       H  0.93563542  0.74227903  0.02732395     0.15200
H1987       H  0.56041803  0.76863135  0.97501657     0.14900
N1988       N  0.57299652  0.70346308  0.00412256     0.74000
O1989       O  0.89016844  0.79481418  0.98920112    -0.39500
O1990       O  0.42106934  0.83838504  0.01568111    -0.39400
O1991       O  0.08121731  0.67809567  0.98877016    -0.40100
O1992       O  0.60569302  0.71715666  0.01544302    -0.40200
C1993       C  0.66377444  0.73834727  0.89185212    -0.12500
C1994       C  0.66417571  0.73261020  0.86632583     0.04500
C1995       C  0.63437339  0.75582241  0.85190310    -0.07800
C1996       C  0.60574351  0.78431462  0.86308436    -0.08500
C1997       C  0.60600306  0.79081896  0.88855796    -0.03100
C1998       C  0.63533626  0.76699219  0.90303411     0.03800
N1999       N  0.63779558  0.77162112  0.92900575     0.66300
H2000       H  0.68614425  0.72106449  0.90340603     0.15200
H2001       H  0.58344731  0.80168559  0.85152850     0.14900
N2002       N  0.63227961  0.75132037  0.82592950     0.74000
O2003       O  0.66679170  0.79535921  0.93794105    -0.39500
O2004       O  0.62184054  0.74248463  0.94221300    -0.40200
O2005       O  0.64871179  0.78035684  0.81284371    -0.40100
O2006       O  0.60343624  0.72762996  0.81679350    -0.40200
C2007       C  0.87039152  0.74540374  0.85230251    -0.12500
C2008       C  0.84673758  0.72178201  0.86944638     0.04500
C2009       C  0.85540139  0.72828699  0.89462810    -0.07800
C2010       C  0.88502229  0.75988036  0.90196085    -0.08500
C2011       C  0.90766031  0.78443466  0.88477051    -0.03100
C2012       C  0.90097705  0.77594898  0.85962510     0.03800
N2013       N  0.92310530  0.79918499  0.84103327     0.66300
H2014       H  0.86483993  0.74047432  0.83300321     0.15200
H2015       H  0.89007774  0.76546230  0.92124215     0.14900
N2016       N  0.83346497  0.70476750  0.91320610     0.74000
O2017       O  0.95624554  0.78235154  0.83173406    -0.39500
O2018       O  0.90220527  0.82641394  0.82862078    -0.39400
O2019       O  0.85413649  0.67641533  0.92493955    -0.40100
O2020       O  0.80070743  0.72152854  0.92297473    -0.40200
C2021       C  0.88507608  0.49816066  0.90032592    -0.12500
C2022       C  0.89939114  0.96651663  0.88410291     0.04500
C2023       C  0.87565762  0.95779955  0.86261634    -0.07800
C2024       C  0.84741681  0.98863955  0.85328384    -0.08500
C2025       C  0.83626401  0.52385138  0.86857569    -0.03100
C2026       C  0.85580175  0.52896637  0.89183581     0.03800
N2027       N  0.84818383  0.56587106  0.90681446     0.66300
H2028       H  0.90019725  0.50297125  0.91790544     0.15200
H2029       H  0.82854000  0.98079040  0.83725499     0.14900
N2030       N  0.87799508  0.91716094  0.85052051     0.74000
O2031       O  0.82289355  0.56232462  0.92469657    -0.39500
O2032       O  0.87655629  0.59483337  0.90744626    -0.39400
O2033       O  0.84906199  0.88972127  0.85472103    -0.40100
O2034       O  0.89861929  0.91486168  0.83073326    -0.40200
C2035       C  0.59954079  0.98046269  0.86137457    -0.12500
C2036       C  0.59776889  0.97453293  0.88679462     0.04500
C2037       C  0.61599022  0.50489574  0.90330058    -0.07800
C2038       C  0.64523470  0.53426879  0.89335701    -0.08500
C2039       C  0.65096214  0.53735023  0.86800077    -0.03100
C2040       C  0.62868042  0.00933555  0.85091651     0.03800
N2041       N  0.62876106  0.01400924  0.82492169     0.66300
H2042       H  0.57915813  0.96156156  0.84943070     0.15200
H2043       H  0.66460019  0.55366289  0.90559095     0.14900
N2044       N  0.61063571  0.50405658  0.92921743     0.74000
O2045       O  0.64834733  0.98628889  0.81220518    -0.39500
O2046       O  0.59495898  0.54043748  0.81671683    -0.39400
O2047       O  0.65224525  0.97825278  0.93930623    -0.40100
O2048       O  0.58535532  0.53101898  0.93887463    -0.40200
loop_ 
_geom_bond_atom_site_label_1 
_geom_bond_atom_site_label_2 
_geom_bond_distance 
_geom_bond_site_symmetry_2 
_ccdc_geom_bond_type 
O1           C16   1.257       .  A
O1           Al9   1.882       .  S
C2           O12   1.258       .  A
C2            O3   1.260       .  A
C2          C461   1.487       .  S
O3           Al5   1.902       .  S
O4            C6   1.263       .  A
O4        Al1029   1.900       .  S
Al5          O13   1.893       .  S
Al5        O1028   1.899   1_455  S
Al5        O1039   1.906   1_455  S
Al5          O14   1.793       .  S
C6           O19   1.270       .  A
C6          C475   1.482       .  S
O7         C1041   1.256       .  A
O7           Al9   1.878       .  S
O8         C1045   1.255       .  A
O8          Al18   1.879       .  S
Al9          O22   1.917       .  S
Al9          O19   1.929       .  S
Al9        O1038   1.781       .  S
O10          C17   1.262   1_455  A
O10         Al18   1.899       .  S
O11          C20   1.267       .  A
O11         Al18   1.928       .  S
O12         Al18   1.904       .  S
O13          C20   1.263       .  A
O14         Al18   1.794       .  S
O14       Al1033   1.781   1_455  S
O15          C16   1.256       .  A
O15       Al1029   1.906       .  S
C16         C486   1.471       .  S
C17        O1031   1.255       .  A
C17         C447   1.468       .  S
C20         C500   1.479       .  S
C21          O22   1.264       .  A
C21        O1032   1.255       .  A
C21         C430   1.474       .  S
O23          C38   1.261       .  A
O23         Al31   1.917       .  S
C24          O34   1.261       .  A
C24          O25   1.259       .  A
C24         C489   1.471       .  S
O25         Al27   1.902       .  S
O26          C28   1.257       .  A
O26         Al27   1.889       .  S
Al27         O35   1.895       .  S
Al27         O37   1.884       .  S
Al27         O36   1.791       .  S
C28          O41   1.266       .  A
C28         C472   1.483       .  S
O29          C39   1.262       .  A
O29         Al31   1.895       .  S
O30          C43   1.260       .  A
O30         Al40   1.874       .  S
Al31         O44   1.922       .  S
Al31         O41   1.924       .  S
Al31         O36   1.789       .  S
O32          C39   1.256       .  A
O32         Al40   1.904       .  S
O33          C42   1.259       .  A
O33         Al40   1.907       .  S
O34         Al40   1.888       .  S
O35          C42   1.259       .  A
O36         Al40   1.789       .  S
O37          C38   1.259       .  A
C38         C458   1.488       .  S
C39         C416   1.484       .  S
C42         C503   1.477       .  S
C43          O44   1.263       .  A
C43         C402   1.482       .  S
O45          C60   1.260       .  A
O45         Al53   1.911       .  S
C46          O56   1.261       .  A
C46          O47   1.264       .  A
C46         C349   1.475       .  S
O47         Al49   1.902       .  S
O48          C50   1.261       .  A
O48         Al49   1.896       .  S
Al49         O57   1.910       .  S
Al49         O59   1.903       .  S
Al49         O58   1.780       .  S
C50          O63   1.262       .  A
C50         C360   1.476       .  S
O51          C61   1.256       .  A
O51         Al53   1.881       .  S
O52          C65   1.263       .  A
O52         Al62   1.901       .  S
Al53         O66   1.907       .  S
Al53         O63   1.913       .  S
Al53         O58   1.781       .  S
O54          C61   1.259       .  A
O54         Al62   1.920       .  S
O55          C64   1.262       .  A
O55         Al62   1.925       .  S
O56         Al62   1.898       .  S
O57          C64   1.262       .  A
O58         Al62   1.797       .  S
O59          C60   1.260       .  A
C60         C374   1.487       .  S
C61         C332   1.488       .  S
C64         C388   1.477       .  S
C65          O66   1.267       .  A
C65         C318   1.486       .  S
O67          C82   1.255       .  A
O67       Al1099   1.885       .  S
C68          O78   1.258       .  A
C68          O69   1.264       .  A
C68         C377   1.477       .  S
O69       Al1095   1.911       .  S
O70          C72   1.263       .  A
O70       Al1095   1.897       .  S
Al71         O79   1.912       .  S
Al71         O81   1.900       .  S
Al71       O1093   1.912   1_455  S
Al71       O1094   1.898   1_455  S
Al71         O80   1.783       .  S
C72          O85   1.264       .  A
C72         C363   1.482       .  S
O73          C83   1.255       .  A
O73         Al75   1.876       .  S
O74          C87   1.258       .  A
O74         Al84   1.889   1_455  S
Al75         O85   1.918       .  S
Al75       O1091   1.883       .  S
Al75       O1112   1.900       .  S
Al75       O1104   1.781       .  S
O76          C83   1.262       .  A
O76       Al1108   1.909       .  S
O77          C86   1.267       .  A
O77         Al84   1.918   1_455  S
O78       Al1108   1.894       .  S
O79          C86   1.262       .  A
O80         Al84   1.783   1_455  S
O80       Al1099   1.782       .  S
O81          C82   1.260       .  A
C82         C346   1.475       .  S
C83         C419   1.467       .  S
Al84       O1100   1.909       .  S
Al84       O1102   1.897       .  S
C86         C391   1.485       .  S
C87          O88   1.264       .  A
C87         C405   1.472       .  S
O88       Al1099   1.899       .  S
O89         C104   1.261       .  A
O89         Al97   1.881       .  S
C90         O100   1.262       .  A
C90          O91   1.251       .  A
C90         C262   1.476       .  S
O91         Al93   1.877       .  S
O92          C94   1.265       .  A
O92         Al93   1.908       .  S
Al93        O101   1.912       .  S
Al93        O103   1.874       .  S
Al93        O102   1.796       .  S
C94         O107   1.261       .  A
C94         C279   1.473       .  S
O95         C105   1.261       .  A
O95         Al97   1.902       .  S
O96         C109   1.260       .  A
O96        Al106   1.896       .  S
Al97        O110   1.903       .  S
Al97        O107   1.904       .  S
Al97        O102   1.793       .  S
O98         C105   1.265       .  A
O98        Al106   1.916       .  S
O99         C108   1.266       .  A
O99        Al106   1.917       .  S
O100       Al106   1.900       .  S
O101        C108   1.264       .  A
O102       Al106   1.776       .  S
O103        C104   1.252       .  A
C104        C293   1.464       .  S
C105        C335   1.485       .  S
C108        C304   1.489       .  S
C109        O110   1.257       .  A
C109        C321   1.485       .  S
O111        C126   1.258       .  A
O111      Al1143   1.875       .  S
C112        O122   1.265       .  A
C112        O113   1.257       .  A
C112        C265   1.476       .  S
O113      Al1139   1.893   1_455  S
O114        C116   1.261       .  A
O114      Al1139   1.899   1_455  S
Al115       O123   1.911       .  S
Al115       O125   1.878       .  S
Al115      O1137   1.897       .  S
Al115      O1138   1.896       .  S
Al115       O124   1.800       .  S
C116        O129   1.265       .  A
C116        C307   1.473       .  S
O117        C127   1.259       .  A
O117       Al119   1.898       .  S
O118        C131   1.264       .  A
O118       Al128   1.896       .  S
Al119       O129   1.904       .  S
Al119      O1135   1.874   1_455  S
Al119      O1156   1.927   1_455  S
Al119      O1148   1.777       .  S
O120        C127   1.259       .  A
O120      Al1152   1.919       .  S
O121        C130   1.264       .  A
O121       Al128   1.918       .  S
O122      Al1152   1.899       .  S
O123        C130   1.260       .  A
O124       Al128   1.779       .  S
O124      Al1143   1.775       .  S
O125        C126   1.251       .  A
C126        C290   1.464       .  S
C127        C234   1.492       .  S
Al128      O1144   1.926       .  S
Al128      O1146   1.898       .  S
C130        C276   1.475       .  S
C131        O132   1.264       .  A
C131        C251   1.492       .  S
O132      Al1143   1.926       .  S
O133        C148   1.258       .  A
O133       Al141   1.894       .  S
C134        O144   1.263       .  A
C134        O135   1.265       .  A
C134        C209   1.487       .  S
O135       Al137   1.907       .  S
O136        C138   1.257       .  A
O136      Al1161   1.887   1_455  S
Al137       O145   1.884       .  S
Al137      O1160   1.890       .  S
Al137      O1171   1.911       .  S
Al137       O146   1.783       .  S
C138        O151   1.258       .  A
C138        C223   1.461       .  S
O139       C1173   1.259   1_455  A
O139       Al141   1.879       .  S
O140       C1177   1.261       .  A
O140       Al150   1.881       .  S
Al141       O154   1.900       .  S
Al141       O151   1.893       .  S
Al141      O1170   1.784   1_455  S
O142        C149   1.257       .  A
O142       Al150   1.908       .  S
O143        C152   1.258       .  A
O143       Al150   1.903       .  S
O144       Al150   1.909       .  S
O145        C152   1.257       .  A
O146       Al150   1.793       .  S
O146      Al1165   1.785       .  S
O147        C148   1.262       .  A
O147      Al1161   1.911   1_455  S
C148        C178   1.478       .  S
C149       O1163   1.259       .  A
C149        C433   1.482       .  S
C152        C192   1.468       .  S
C153        O154   1.259   1_655  A
C153       O1164   1.262       .  A
C153        C444   1.474       .  S
O155        C170   1.258       .  A
O155       Al163   1.911       .  S
C156        O166   1.256       .  A
C156        O157   1.258       .  A
C156        C181   1.476       .  S
O157       Al159   1.907       .  S
O158        C160   1.263       .  A
O158       Al159   1.898       .  S
Al159       O167   1.883       .  S
Al159       O169   1.900       .  S
Al159       O168   1.787       .  S
C160        O173   1.270       .  A
C160        C220   1.487       .  S
O161        C171   1.258       .  A
O161       Al163   1.883       .  S
O162        C175   1.258       .  A
O162       Al172   1.896       .  S
Al163       O176   1.912       .  S
Al163       O173   1.940       .  S
Al163       O168   1.784       .  S
O164        C171   1.258       .  A
O164       Al172   1.884       .  S
O165        C174   1.263       .  A
O165       Al172   1.910       .  S
O166       Al172   1.906       .  S
O167        C174   1.262       .  A
O168       Al172   1.792       .  S
O169        C170   1.259       .  A
C170        C206   1.483       .  S
C171        C237   1.464       .  S
C174        C195   1.467       .  S
C175        O176   1.263       .  A
C175        C248   1.485       .  S
C177        C178   1.402       .  A
C177        C182   1.400       .  A
C177        H184   1.090       .  S
C178        C179   1.411       .  A
C179        C180   1.404       .  A
C179        N186   1.430       .  S
C180        C181   1.404       .  A
C180        H185   1.090       .  S
C181        C182   1.410       .  A
C182        N183   1.430       .  S
N183        O187   1.262       .  A
N183        O188   1.262       .  A
N186        O190   1.262       .  A
N186        O189   1.262       .  A
C191        C192   1.400       .  A
C191        C196   1.395       .  A
C191        H198   1.079       .  S
C192        C193   1.411       .  A
C193        C194   1.395       .  A
C193        N200   1.427       .  S
C194        C195   1.399       .  A
C194        H199   1.079       .  S
C195        C196   1.410       .  A
C196        N197   1.426       .  S
N197        O201   1.262       .  A
N197        O202   1.262       .  A
N200        O204   1.261       .  A
N200        O203   1.262       .  A
C205        C206   1.405       .  A
C205        C210   1.397       .  A
C205        H212   1.078       .  S
C206        C719   1.412       .  A
C207        C208   1.398       .  A
C207        C718   1.412   1_545  A
C207        N214   1.429       .  S
C208        C209   1.407       .  A
C208        H213   1.079       .  S
C209        C722   1.413       .  A
C210        C721   1.413       .  A
C210        N211   1.428       .  S
N211        O215   1.261       .  A
N211        O728   1.262       .  A
N214        O218   1.262       .  A
N214        O217   1.262       .  A
O216        N723   1.262       .  A
C219        C224   1.402       .  A
C219        C732   1.413   1_545  A
C219        H226   1.085       .  S
C220        C221   1.416       .  A
C220        C731   1.410       .  A
C221        C222   1.395       .  A
C221        N228   1.427       .  S
C222        C735   1.396       .  A
C222        H227   1.082       .  S
C223        C224   1.402       .  A
C223        C734   1.393       .  A
C224        N225   1.431       .  S
N225        O229   1.262       .  A
N225        O230   1.262       .  A
N228        O232   1.262       .  A
N228        O231   1.262       .  A
C233        C234   1.412       .  A
C233        C238   1.402       .  A
C233        H240   1.087       .  S
C234        C235   1.421       .  A
C235        C236   1.394       .  A
C235        N242   1.428       .  S
C236        C237   1.394       .  A
C236        H241   1.085       .  S
C237        C238   1.404       .  A
C238        N239   1.430       .  S
N239        O243   1.262       .  A
N239        O244   1.262       .  A
N242        O246   1.262       .  A
N242        O245   1.262       .  A
C247        C248   1.403       .  A
C247        C252   1.400       .  A
C247        H254   1.077       .  S
C248        C249   1.414       .  A
C249        C250   1.401       .  A
C249        N256   1.428       .  S
C250        C251   1.406       .  A
C250        H255   1.076       .  S
C251        C252   1.417       .  A
C252        N253   1.428       .  S
N253        O257   1.262       .  A
N253        O258   1.262       .  A
N256        O260   1.262       .  A
N256        O259   1.261       .  A
C261        C262   1.399       .  A
C261        C266   1.395       .  A
C261        H268   1.074       .  S
C262        C263   1.418       .  A
C263        C264   1.394       .  A
C263        N270   1.429       .  S
C264        C265   1.399       .  A
C264        H269   1.074       .  S
C265        C266   1.417       .  A
C266        N267   1.428       .  S
N267        O271   1.262       .  A
N267        O272   1.262       .  A
N270        O274   1.262       .  A
N270        O273   1.262       .  A
C275        C276   1.399       .  A
C275        C280   1.395       .  A
C275        H282   1.078       .  S
C276        C277   1.413       .  A
C277        C278   1.404       .  A
C277        N284   1.427       .  S
C278        C279   1.402       .  A
C278        H283   1.077       .  S
C279        C280   1.413       .  A
C280        N281   1.430       .  S
N281        O285   1.261       .  A
N281        O286   1.262       .  A
N284        O288   1.262       .  A
N284        O287   1.262       .  A
C289        C294   1.387   1_565  A
C289        C802   1.398       .  A
C289        H296   1.079       .  S
C290        C291   1.414       .  A
C290        C801   1.399       .  A
C291        C292   1.386       .  A
C291        N298   1.426       .  S
C292        C805   1.397       .  A
C292        H297   1.077       .  S
C293        C294   1.416       .  A
C293        C804   1.398   1_545  A
C294        N295   1.430       .  S
N295        O299   1.262       .  A
N295        O300   1.262       .  A
N298        O302   1.262       .  A
N298        O301   1.261       .  A
C303        C304   1.408       .  A
C303        C820   1.402   1_545  A
C303        H310   1.079       .  S
C304        C305   1.415       .  A
C305        C306   1.402   1_545  A
C305        N312   1.428       .  S
C306        C819   1.403       .  A
C306        H311   1.079       .  S
C307        C308   1.412       .  A
C307        C818   1.401       .  A
C308        C815   1.400       .  A
C308        N309   1.428       .  S
N309        O313   1.261       .  A
N309        O314   1.260       .  A
N312        O316   1.262       .  A
N312        O315   1.262       .  A
C317        C322   1.396   1_565  A
C317        C830   1.404       .  A
C317        H324   1.079       .  S
C318        C319   1.416       .  A
C318        C829   1.407       .  A
C319        C320   1.400       .  A
C319        N326   1.428       .  S
C320        C833   1.402       .  A
C320        H325   1.079       .  S
C321        C322   1.417       .  A
C321        C832   1.405       .  A
C322        N323   1.429       .  S
N323        O327   1.262       .  A
N323        O328   1.262       .  A
N326        O330   1.262       .  A
N326        O329   1.262       .  A
C331        C332   1.406       .  A
C331        C336   1.398       .  A
C331        H338   1.076       .  S
C332        C333   1.416       .  A
C333        C334   1.401       .  A
C333        N340   1.428       .  S
C334        C335   1.404       .  A
C334        H339   1.078       .  S
C335        C336   1.413       .  A
C336        N337   1.428       .  S
N337        O341   1.262       .  A
N337        O342   1.262       .  A
N340        O344   1.260       .  A
N340        O343   1.261       .  A
C345        C346   1.403       .  A
C345        C350   1.395       .  A
C345        H352   1.080       .  S
C346        C347   1.412       .  A
C347        C348   1.393       .  A
C347        N354   1.428       .  S
C348        C349   1.403       .  A
C348        H353   1.080       .  S
C349        C350   1.410       .  A
C350        N351   1.426       .  S
N351        O355   1.262       .  A
N351        O356   1.260       .  A
N354        O358   1.262       .  A
N354        O357   1.262       .  A
C359        C360   1.399       .  A
C359        C364   1.398       .  A
C359        H366   1.081       .  S
C360        C361   1.412       .  A
C361        C362   1.402       .  A
C361        N368   1.428       .  S
C362        C363   1.404       .  A
C362        H367   1.080       .  S
C363        C364   1.414       .  A
C364        N365   1.428       .  S
N365        O369   1.262       .  A
N365        O370   1.262       .  A
N368        O372   1.262       .  A
N368        O371   1.262       .  A
C373        C374   1.406       .  A
C373        C890   1.402       .  A
C373        H380   1.079       .  S
C374        C375   1.412       .  A
C375        C888   1.401       .  A
C375        N382   1.428       .  S
C376        C377   1.404       .  A
C376        C887   1.396   1_545  A
C376        H381   1.078       .  S
C377        C378   1.413       .  A
C378        C885   1.396   1_545  A
C378        N379   1.429       .  S
N379        O383   1.262       .  A
N379        O384   1.262   1_545  A
N382        O386   1.262       .  A
N382        O385   1.262       .  A
C387        C392   1.404       .  A
C387        C900   1.399   1_545  A
C387        H394   1.078       .  S
C388        C389   1.409       .  A
C388        C899   1.402       .  A
C389        C390   1.398       .  A
C389        N396   1.428       .  S
C390        C903   1.403       .  A
C390        H395   1.077       .  S
C391        C392   1.418       .  A
C391        C902   1.405   1_545  A
C392        N393   1.428       .  S
N393        O397   1.262       .  A
N393        O398   1.262       .  A
N396        O400   1.262       .  A
N396        O399   1.262       .  A
C401        C402   1.407       .  A
C401        C406   1.396       .  A
C401        H408   1.079       .  S
C402        C403   1.414       .  A
C403        C404   1.393       .  A
C403        N410   1.427       .  S
C404        C405   1.401       .  A
C404        H409   1.080       .  S
C405        C406   1.410       .  A
C406        N407   1.429       .  S
N407        O411   1.262       .  A
N407        O412   1.262       .  A
N410        O414   1.260       .  A
N410        O413   1.262       .  A
C415        C416   1.404       .  A
C415        C420   1.395       .  A
C415        H422   1.078       .  S
C416        C417   1.421       .  A
C417        C418   1.397       .  A
C417        N424   1.429       .  S
C418        C419   1.397       .  A
C418        H423   1.077       .  S
C419        C420   1.409       .  A
C420        N421   1.428       .  S
N421        O425   1.261       .  A
N421        O426   1.262       .  A
N424        O428   1.262       .  A
N424        O427   1.262       .  A
C429        C430   1.398       .  A
C429        C946   1.397   1_556  A
C429        H436   1.080       .  S
C430       C1455   1.413   1_556  A
C431       C1454   1.414   1_554  A
C431        C944   1.397       .  A
C431        N438   1.429       .  S
C432        C943   1.393   1_545  A
C432       C1457   1.403   1_455  A
C432        H437   1.079       .  S
C433        C434   1.418       .  A
C433       C1456   1.404       .  A
C434        C941   1.398   1_544  A
C434        N435   1.428       .  S
N435        O439   1.262   1_554  A
N435        O440   1.262       .  A
N438        O442   1.262       .  A
N438        O441   1.262   1_554  A
C443        C448   1.393   1_554  A
C443       C1468   1.402       .  A
C443        H450   1.081       .  S
C444        C445   1.416   1_655  A
C444       C1467   1.402       .  A
C445        C446   1.393   1_554  A
C445        N452   1.428       .  S
C446        C447   1.399   1_455  A
C446        H451   1.083       .  S
C447       C1472   1.412       .  A
C448       C1471   1.412       .  A
C448        N449   1.429       .  S
N449        O453   1.262       .  A
N449       O1478   1.262   1_556  A
N452        O456   1.262       .  A
N452       O1479   1.262       .  A
O454       N1473   1.262   1_554  A
O455       N1476   1.262       .  A
C457        C458   1.407       .  A
C457        C462   1.396       .  A
C457        H464   1.078       .  S
C458        C459   1.412       .  A
C459        C460   1.400       .  A
C459        N466   1.426       .  S
C460        C461   1.408       .  A
C460        H465   1.078       .  S
C461        C462   1.412       .  A
C462        N463   1.428       .  S
N463        O467   1.262       .  A
N463        O468   1.262       .  A
N466        O470   1.262       .  A
N466        O469   1.262       .  A
C471        C472   1.402       .  A
C471        C476   1.402       .  A
C471        H478   1.080       .  S
C472        C473   1.415       .  A
C473        C474   1.400       .  A
C473        N480   1.428       .  S
C474        C475   1.402       .  A
C474        H479   1.080       .  S
C475        C476   1.415       .  A
C476        N477   1.428       .  S
N477        O481   1.262       .  A
N477        O482   1.261       .  A
N480        O484   1.262       .  A
N480        O483   1.261       .  A
C485        C490   1.398       .  A
C485        C998   1.399   1_545  A
C485        H492   1.080       .  S
C486        C487   1.412       .  A
C486        C997   1.399       .  A
C487        C488   1.393       .  A
C487        N494   1.426       .  S
C488       C1001   1.400       .  A
C488        H493   1.078       .  S
C489        C490   1.414       .  A
C489       C1000   1.397   1_545  A
C490        N491   1.427       .  S
N491        O495   1.262       .  A
N491        O496   1.262       .  A
N494        O498   1.262       .  A
N494        O497   1.262       .  A
C499        C500   1.400       .  A
C499        C504   1.398       .  A
C499        H506   1.082       .  S
C500       C1013   1.413       .  A
C501        C502   1.400       .  A
C501       C1012   1.414   1_545  A
C501        N508   1.428   1_545  S
C502        C503   1.401       .  A
C502        H507   1.082       .  S
C503       C1016   1.413       .  A
C504       C1015   1.413       .  A
C504        N505   1.427       .  S
N505        O509   1.262       .  A
N505       O1022   1.262       .  A
N508        O512   1.262   1_565  A
N508       O1023   1.262       .  A
O510       N1017   1.262       .  A
O511       N1020   1.261       .  A
O513        C528   1.257       .  A
O513       Al521   1.890       .  S
C514        O524   1.256       .  A
C514        O515   1.258       .  A
C514        C973   1.478       .  S
O515       Al517   1.886       .  S
O516        C518   1.263       .  A
O516      Al1541   1.905       .  S
Al517      O1540   1.905   1_455  S
Al517       O525   1.898       .  S
Al517      O1551   1.899   1_455  S
Al517       O526   1.794       .  S
C518        O531   1.269       .  A
C518        C987   1.487       .  S
O519       C1553   1.258       .  A
O519       Al521   1.885       .  S
O520       C1557   1.255       .  A
O520       Al530   1.877       .  S
Al521       O534   1.911       .  S
Al521       O531   1.931       .  S
Al521      O1550   1.785       .  S
O522        C529   1.260   1_455  A
O522       Al530   1.898       .  S
O523        C532   1.264       .  A
O523       Al530   1.921       .  S
O524       Al530   1.893       .  S
O525        C532   1.264       .  A
O526      Al1545   1.785   1_455  S
O526       Al530   1.798       .  S
O527        C528   1.255       .  A
O527      Al1541   1.900       .  S
C528        C998   1.467       .  S
C529       O1543   1.258       .  A
C529        C959   1.471       .  S
C532       C1012   1.481       .  S
C533       O1544   1.255       .  A
C533        O534   1.263       .  A
C533        C942   1.472       .  S
O535        C550   1.258       .  A
O535       Al543   1.898       .  S
C536        O546   1.262       .  A
C536        O537   1.258       .  A
C536       C1001   1.474       .  S
O537       Al539   1.899       .  S
O538        C540   1.260       .  A
O538       Al539   1.903       .  S
Al539       O547   1.899       .  S
Al539       O549   1.879       .  S
Al539       O548   1.796       .  S
C540        O553   1.268       .  A
C540        C984   1.488       .  S
O541        C551   1.262       .  A
O541       Al543   1.887       .  S
O542        C555   1.258       .  A
O542       Al552   1.872       .  S
Al543       O556   1.925       .  S
Al543       O553   1.926       .  S
Al543       O548   1.786       .  S
O544        C551   1.260       .  A
O544       Al552   1.922       .  S
O545        C554   1.261       .  A
O545       Al552   1.915       .  S
O546       Al552   1.889       .  S
O547        C554   1.260       .  A
O548       Al552   1.785       .  S
O549        C550   1.258       .  A
C550        C970   1.477       .  S
C551        C928   1.489       .  S
C554       C1015   1.480       .  S
C555        O556   1.262       .  A
C555        C914   1.484       .  S
O557        C572   1.258       .  A
O557       Al565   1.894       .  S
C558        O568   1.261       .  A
C558        O559   1.264       .  A
C558        C861   1.480       .  S
O559       Al561   1.907       .  S
O560        C562   1.260       .  A
O560       Al561   1.885       .  S
Al561       O569   1.899       .  S
Al561       O571   1.902       .  S
Al561       O570   1.777       .  S
C562        O575   1.262       .  A
C562        C872   1.471       .  S
O563        C573   1.257       .  A
O563       Al565   1.870       .  S
O564        C577   1.264       .  A
O564       Al574   1.904       .  S
Al565       O578   1.903       .  S
Al565       O575   1.915       .  S
Al565       O570   1.781       .  S
O566        C573   1.259       .  A
O566       Al574   1.911       .  S
O567        C576   1.262       .  A
O567       Al574   1.920       .  S
O568       Al574   1.903       .  S
O569        C576   1.260       .  A
O570       Al574   1.789       .  S
O571        C572   1.261       .  A
C572        C886   1.477       .  S
C573        C844   1.478       .  S
C576        C900   1.466       .  S
C577        O578   1.265       .  A
C577        C830   1.481       .  S
O579        C594   1.258       .  A
O579      Al1611   1.898       .  S
C580        O590   1.258       .  A
C580        O581   1.265       .  A
C580        C889   1.487       .  S
O581      Al1607   1.924       .  S
O582        C584   1.263       .  A
O582      Al1607   1.894       .  S
Al583      O1605   1.924   1_455  S
Al583      O1606   1.894   1_455  S
Al583       O591   1.910       .  S
Al583       O593   1.905       .  S
Al583       O592   1.784       .  S
C584        O597   1.263       .  A
C584        C875   1.472       .  S
O585        C595   1.256       .  A
O585       Al587   1.886       .  S
O586        C599   1.259       .  A
O586       Al596   1.891   1_455  S
Al587      O1603   1.899       .  S
Al587      O1624   1.895       .  S
Al587       O597   1.907       .  S
Al587      O1616   1.788       .  S
O588        C595   1.263       .  A
O588      Al1620   1.914       .  S
O589        C598   1.269       .  A
O589       Al596   1.934   1_455  S
O590      Al1620   1.907       .  S
O591        C598   1.260       .  A
O592      Al1611   1.787       .  S
O592       Al596   1.784   1_455  S
O593        C594   1.261       .  A
C594        C858   1.482       .  S
C595        C931   1.476       .  S
Al596      O1612   1.915       .  S
Al596      O1614   1.902       .  S
C598        C903   1.487       .  S
C599        O600   1.261       .  A
C599        C917   1.468       .  S
O600      Al1611   1.895       .  S
O601        C616   1.258       .  A
O601       Al609   1.865       .  S
C602        O612   1.260       .  A
C602        O603   1.254       .  A
C602        C774   1.470       .  S
O603       Al605   1.888       .  S
O604        C606   1.260       .  A
O604       Al605   1.888       .  S
Al605       O613   1.896       .  S
Al605       O615   1.888       .  S
Al605       O614   1.792       .  S
C606        O619   1.263       .  A
C606        C791   1.465       .  S
O607        C617   1.260       .  A
O607       Al609   1.890       .  S
O608        C621   1.258       .  A
O608       Al618   1.890       .  S
Al609       O622   1.906       .  S
Al609       O619   1.916       .  S
Al609       O614   1.786       .  S
O610        C617   1.264       .  A
O610       Al618   1.909       .  S
O611        C620   1.265       .  A
O611       Al618   1.913       .  S
O612       Al618   1.894       .  S
O613        C620   1.261       .  A
O614       Al618   1.774       .  S
O615        C616   1.255       .  A
C616        C805   1.461       .  S
C617        C847   1.472       .  S
C620        C816   1.477       .  S
C621        O622   1.258       .  A
C621        C833   1.475       .  S
O623        C638   1.260       .  A
O623      Al1655   1.885       .  S
C624        O634   1.264       .  A
C624        O625   1.257       .  A
C624        C777   1.472       .  S
O625      Al1651   1.894   1_455  S
O626        C628   1.265       .  A
O626      Al1651   1.910   1_455  S
Al627      O1649   1.893       .  S
Al627      O1650   1.910       .  S
Al627       O635   1.906       .  S
Al627       O637   1.870       .  S
Al627       O636   1.793       .  S
C628        O641   1.264       .  A
C628        C819   1.478       .  S
O629        C639   1.262       .  A
O629       Al631   1.897   1_455  S
O630        C643   1.262       .  A
O630       Al640   1.894       .  S
Al631      O1647   1.886       .  S
Al631      O1668   1.911       .  S
Al631       O641   1.909   1_655  S
Al631      O1660   1.774       .  S
O632        C639   1.263       .  A
O632      Al1664   1.926   1_455  S
O633        C642   1.262       .  A
O633       Al640   1.907       .  S
O634      Al1664   1.902   1_455  S
O635        C642   1.259       .  A
O636      Al1655   1.778       .  S
O636       Al640   1.781       .  S
O637        C638   1.251       .  A
C638        C802   1.466       .  S
C639        C746   1.490       .  S
Al640      O1656   1.920       .  S
Al640      O1658   1.904       .  S
C642        C788   1.470       .  S
C643        O644   1.259       .  A
C643        C763   1.484       .  S
O644      Al1655   1.908       .  S
O645        C660   1.258       .  A
O645       Al653   1.888       .  S
C646        O656   1.260       .  A
C646        O647   1.264       .  A
C646        C721   1.485       .  S
O647       Al649   1.910       .  S
O648        C650   1.258       .  A
O648      Al1673   1.893   1_455  S
Al649      O1672   1.896       .  S
Al649       O657   1.891       .  S
Al649      O1683   1.911       .  S
Al649       O658   1.786       .  S
C650        O663   1.259       .  A
C650        C735   1.471       .  S
O651       C1685   1.260   1_455  A
O651       Al653   1.882       .  S
O652       C1689   1.259       .  A
O652       Al662   1.876       .  S
Al653       O666   1.915       .  S
Al653       O663   1.897       .  S
Al653      O1682   1.788   1_455  S
O654        C661   1.260       .  A
O654       Al662   1.912       .  S
O655        C664   1.259       .  A
O655       Al662   1.908       .  S
O656       Al662   1.898       .  S
O657        C664   1.259       .  A
O658      Al1677   1.789       .  S
O658       Al662   1.790       .  S
O659        C660   1.262       .  A
O659      Al1673   1.908   1_455  S
C660        C690   1.468       .  S
C661       O1675   1.260       .  A
C661        C945   1.483       .  S
C664        C704   1.478       .  S
C665       O1676   1.259       .  A
C665        O666   1.261   1_655  A
C665        C956   1.483   1_655  S
O667        C682   1.259       .  A
O667       Al675   1.904       .  S
C668        O678   1.253       .  A
C668        O669   1.259       .  A
C668        C693   1.465       .  S
O669       Al671   1.906       .  S
O670        C672   1.263       .  A
O670       Al671   1.907       .  S
Al671       O679   1.897       .  S
Al671       O681   1.901       .  S
Al671       O680   1.786       .  S
C672        O685   1.269       .  A
C672        C732   1.495       .  S
O673        C683   1.257       .  A
O673       Al675   1.880       .  S
O674        C687   1.256       .  A
O674       Al684   1.879       .  S
Al675       O688   1.917       .  S
Al675       O685   1.933       .  S
Al675       O680   1.783       .  S
O676        C683   1.257       .  A
O676       Al684   1.888       .  S
O677        C686   1.264       .  A
O677       Al684   1.916       .  S
O678       Al684   1.889       .  S
O679        C686   1.263       .  A
O680       Al684   1.792       .  S
O681        C682   1.260       .  A
C682        C718   1.485       .  S
C683        C749   1.460       .  S
C686        C707   1.475       .  S
C687        O688   1.265       .  A
C687        C760   1.478       .  S
C689        C690   1.402       .  A
C689        C694   1.398       .  A
C689        H696   1.091       .  S
C690        C691   1.409       .  A
C691        C692   1.400       .  A
C691        N698   1.430       .  S
C692        C693   1.402       .  A
C692        H697   1.091       .  S
C693        C694   1.407       .  A
C694        N695   1.430       .  S
N695        O699   1.262       .  A
N695        O700   1.262       .  A
N698        O702   1.262       .  A
N698        O701   1.262       .  A
C703        C704   1.400       .  A
C703        C708   1.398       .  A
C703        H710   1.078       .  S
C704        C705   1.413       .  A
C705        C706   1.398       .  A
C705        N712   1.425       .  S
C706        C707   1.397       .  A
C706        H711   1.078       .  S
C707        C708   1.411       .  A
C708        N709   1.423       .  S
N709        O713   1.260       .  A
N709        O714   1.262       .  A
N712        O716   1.261       .  A
N712        O715   1.262       .  A
C717        C718   1.407       .  A
C717        C722   1.398   1_565  A
C717        H724   1.079       .  S
C719        C720   1.400       .  A
C719        N726   1.428       .  S
C720        C721   1.407       .  A
C720        H725   1.078       .  S
C722        N723   1.428       .  S
N723        O727   1.262   1_545  A
N726        O730   1.262       .  A
N726        O729   1.262       .  A
C731        C736   1.407       .  A
C731        H738   1.085       .  S
C732        C733   1.422       .  A
C733        C734   1.399   1_565  A
C733        N740   1.427       .  S
C734        H739   1.082   1_545  S
C735        C736   1.408       .  A
C736        N737   1.430       .  S
N737        O741   1.262       .  A
N737        O742   1.262       .  A
N740        O744   1.262       .  A
N740        O743   1.262       .  A
C745        C746   1.411       .  A
C745        C750   1.400       .  A
C745        H752   1.087       .  S
C746        C747   1.422       .  A
C747        C748   1.396       .  A
C747        N754   1.428       .  S
C748        C749   1.393       .  A
C748        H753   1.084       .  S
C749        C750   1.402       .  A
C750        N751   1.430       .  S
N751        O755   1.262       .  A
N751        O756   1.262       .  A
N754        O758   1.262       .  A
N754        O757   1.262       .  A
C759        C760   1.400       .  A
C759        C764   1.397       .  A
C759        H766   1.075       .  S
C760        C761   1.415       .  A
C761        C762   1.397       .  A
C761        N768   1.428       .  S
C762        C763   1.402       .  A
C762        H767   1.075       .  S
C763        C764   1.417       .  A
C764        N765   1.428       .  S
N765        O769   1.262       .  A
N765        O770   1.262       .  A
N768        O772   1.262       .  A
N768        O771   1.260       .  A
C773        C774   1.398       .  A
C773        C778   1.393       .  A
C773        H780   1.074       .  S
C774        C775   1.414       .  A
C775        C776   1.398       .  A
C775        N782   1.429       .  S
C776        C777   1.400       .  A
C776        H781   1.074       .  S
C777        C778   1.415       .  A
C778        N779   1.429       .  S
N779        O783   1.261       .  A
N779        O784   1.262       .  A
N782        O786   1.262       .  A
N782        O785   1.262       .  A
C787        C788   1.400       .  A
C787        C792   1.393       .  A
C787        H794   1.078       .  S
C788        C789   1.412       .  A
C789        C790   1.400       .  A
C789        N796   1.427       .  S
C790        C791   1.400       .  A
C790        H795   1.079       .  S
C791        C792   1.409       .  A
C792        N793   1.429       .  S
N793        O797   1.262       .  A
N793        O798   1.262       .  A
N796        O800   1.261       .  A
N796        O799   1.262       .  A
C801        C806   1.388       .  A
C801        H808   1.078       .  S
C802        C803   1.417       .  A
C803        C804   1.388       .  A
C803        N810   1.430       .  S
C804        H809   1.079   1_565  S
C805        C806   1.411       .  A
C806        N807   1.426       .  S
N807        O811   1.262       .  A
N807        O812   1.261       .  A
N810        O814   1.261       .  A
N810        O813   1.261       .  A
C815        C816   1.404       .  A
C815        H822   1.078       .  S
C816        C817   1.411       .  A
C817        C818   1.395       .  A
C817        N824   1.427       .  S
C818        H823   1.079       .  S
C819        C820   1.409       .  A
C820        N821   1.428       .  S
N821        O825   1.261       .  A
N821        O826   1.262       .  A
N824        O828   1.262       .  A
N824        O827   1.261       .  A
C829        C834   1.395       .  A
C829        H836   1.079       .  S
C830        C831   1.411       .  A
C831        C832   1.400   1_565  A
C831        N838   1.427       .  S
C832        H837   1.078       .  S
C833        C834   1.410       .  A
C834        N835   1.429       .  S
N835        O839   1.262       .  A
N835        O840   1.262       .  A
N838        O842   1.262       .  A
N838        O841   1.262       .  A
C843        C844   1.404       .  A
C843        C848   1.394       .  A
C843        H850   1.077       .  S
C844        C845   1.413       .  A
C845        C846   1.396       .  A
C845        N852   1.428       .  S
C846        C847   1.402       .  A
C846        H851   1.081       .  S
C847        C848   1.410       .  A
C848        N849   1.428       .  S
N849        O853   1.262       .  A
N849        O854   1.262       .  A
N852        O856   1.261       .  A
N852        O855   1.262       .  A
C857        C858   1.406       .  A
C857        C862   1.398       .  A
C857        H864   1.078       .  S
C858        C859   1.413       .  A
C859        C860   1.397       .  A
C859        N866   1.428       .  S
C860        C861   1.405       .  A
C860        H865   1.077       .  S
C861        C862   1.411       .  A
C862        N863   1.428       .  S
N863        O867   1.262       .  A
N863        O868   1.261       .  A
N866        O870   1.262       .  A
N866        O869   1.262       .  A
C871        C872   1.400       .  A
C871        C876   1.395       .  A
C871        H878   1.080       .  S
C872        C873   1.411       .  A
C873        C874   1.399       .  A
C873        N880   1.427       .  S
C874        C875   1.401       .  A
C874        H879   1.079       .  S
C875        C876   1.412       .  A
C876        N877   1.428       .  S
N877        O881   1.262       .  A
N877        O882   1.262       .  A
N880        O884   1.261       .  A
N880        O883   1.262       .  A
C885        C886   1.404       .  A
C885        H892   1.078       .  S
C886        C887   1.412       .  A
C887        N894   1.428       .  S
C888        C889   1.404       .  A
C888        H893   1.080       .  S
C889        C890   1.415       .  A
C890        N891   1.429       .  S
N891        O895   1.262       .  A
N891        O896   1.262       .  A
N894        O898   1.262       .  A
N894        O897   1.262       .  A
C899        C904   1.408       .  A
C899        H906   1.076       .  S
C900        C901   1.406       .  A
C901        C902   1.394       .  A
C901        N908   1.429       .  S
C902        H907   1.078       .  S
C903        C904   1.419       .  A
C904        N905   1.429       .  S
N905        O909   1.262       .  A
N905        O910   1.262       .  A
N908        O912   1.262       .  A
N908        O911   1.262       .  A
C913        C914   1.407       .  A
C913        C918   1.394       .  A
C913        H920   1.076       .  S
C914        C915   1.415       .  A
C915        C916   1.396       .  A
C915        N922   1.428       .  S
C916        C917   1.401       .  A
C916        H921   1.079       .  S
C917        C918   1.407       .  A
C918        N919   1.429       .  S
N919        O923   1.262       .  A
N919        O924   1.262       .  A
N922        O926   1.262       .  A
N922        O925   1.262       .  A
C927        C928   1.405       .  A
C927        C932   1.396       .  A
C927        H934   1.078       .  S
C928        C929   1.419       .  A
C929        C930   1.401       .  A
C929        N936   1.429       .  S
C930        C931   1.400       .  A
C930        H935   1.076       .  S
C931        C932   1.410       .  A
C932        N933   1.428       .  S
N933        O937   1.262       .  A
N933        O938   1.262       .  A
N936        O940   1.262       .  A
N936        O939   1.262       .  A
C941        C942   1.399       .  A
C941        H948   1.079       .  S
C942       C1967   1.412   1_556  A
C943       C1966   1.411   1_554  A
C943        N950   1.428       .  S
C944       C1969   1.404   1_455  A
C944        H949   1.079       .  S
C945       C1968   1.404       .  A
C945        C946   1.417       .  A
C946        N947   1.428       .  S
N947        O951   1.262   1_554  A
N947        O952   1.261       .  A
N950        O954   1.262       .  A
N950        O953   1.262   1_554  A
C955       C1980   1.406       .  A
C955        C960   1.395   1_554  A
C955        H962   1.052       .  S
C956       C1979   1.406   1_455  A
C956        C957   1.415       .  A
C957        C958   1.399   1_554  A
C957        N964   1.429       .  S
C958        C959   1.402   1_455  A
C958        H963   1.066       .  S
C959       C1984   1.407       .  A
C960       C1983   1.407       .  A
C960        N961   1.429       .  S
N961        O965   1.262       .  A
N961       O1990   1.262   1_556  A
N964        O968   1.262       .  A
N964       O1991   1.262   1_554  A
O966       N1985   1.262   1_554  A
O967       N1988   1.262   1_556  A
C969        C970   1.406       .  A
C969        C974   1.393       .  A
C969        H976   1.079       .  S
C970        C971   1.410       .  A
C971        C972   1.394       .  A
C971        N978   1.428       .  S
C972        C973   1.407       .  A
C972        H977   1.079       .  S
C973        C974   1.412       .  A
C974        N975   1.429       .  S
N975        O979   1.262       .  A
N975        O980   1.262       .  A
N978        O982   1.262       .  A
N978        O981   1.262       .  A
C983        C984   1.403       .  A
C983        C988   1.402       .  A
C983        H990   1.079       .  S
C984        C985   1.416       .  A
C985        C986   1.404       .  A
C985        N992   1.428       .  S
C986        C987   1.403       .  A
C986        H991   1.079       .  S
C987        C988   1.414       .  A
C988        N989   1.427       .  S
N989        O993   1.261       .  A
N989        O994   1.261       .  A
N992        O996   1.262       .  A
N992        O995   1.261       .  A
C997       C1002   1.395       .  A
C997       H1004   1.078       .  S
C998        C999   1.410       .  A
C999       C1000   1.392       .  A
C999       N1006   1.425       .  S
C1000      H1005   1.080       .  S
C1001      C1002   1.415       .  A
C1002      N1003   1.427       .  S
N1003      O1007   1.262       .  A
N1003      O1008   1.261       .  A
N1006      O1010   1.261       .  A
N1006      O1009   1.262       .  A
C1011      C1012   1.403       .  A
C1011      C1016   1.400   1_565  A
C1011      H1018   1.082       .  S
C1013      C1014   1.402       .  A
C1013      N1020   1.428       .  S
C1014      C1015   1.402       .  A
C1014      H1019   1.081       .  S
C1016      N1017   1.429       .  S
N1017      O1021   1.262   1_545  A
N1020      O1024   1.262       .  A
O1025      C1040   1.256       .  A
O1025     Al1033   1.883       .  S
C1026      O1036   1.258       .  A
C1026      O1027   1.260       .  A
C1026      C1485   1.486       .  S
O1027     Al1029   1.902       .  S
O1028      C1030   1.263       .  A
Al1029     O1037   1.894       .  S
Al1029     O1038   1.794       .  S
C1030      O1043   1.270       .  A
C1030      C1499   1.482       .  S
O1031     Al1033   1.873       .  S
O1032     Al1042   1.879       .  S
Al1033     O1046   1.918       .  S
Al1033     O1043   1.932       .  S
O1034      C1041   1.262       .  A
O1034     Al1042   1.901       .  S
O1035      C1044   1.267       .  A
O1035     Al1042   1.926       .  S
O1036     Al1042   1.902       .  S
O1037      C1044   1.263       .  A
O1038     Al1042   1.794       .  S
O1039      C1040   1.255       .  A
C1040      C1510   1.471       .  S
C1041      C1471   1.470       .  S
C1044      C1524   1.479       .  S
C1045      O1046   1.264   1_455  A
C1045      C1454   1.474       .  S
O1047      C1062   1.261       .  A
O1047     Al1055   1.915       .  S
C1048      O1058   1.261       .  A
C1048      O1049   1.259       .  A
C1048      C1513   1.470       .  S
O1049     Al1051   1.903       .  S
O1050      C1052   1.256       .  A
O1050     Al1051   1.889       .  S
Al1051     O1059   1.895       .  S
Al1051     O1061   1.885       .  S
Al1051     O1060   1.791       .  S
C1052      O1065   1.266       .  A
C1052      C1496   1.484       .  S
O1053      C1063   1.262       .  A
O1053     Al1055   1.896       .  S
O1054      C1067   1.259       .  A
O1054     Al1064   1.871       .  S
Al1055     O1068   1.925       .  S
Al1055     O1065   1.926       .  S
Al1055     O1060   1.788       .  S
O1056      C1063   1.257       .  A
O1056     Al1064   1.906       .  S
O1057      C1066   1.259       .  A
O1057     Al1064   1.909       .  S
O1058     Al1064   1.887       .  S
O1059      C1066   1.259       .  A
O1060     Al1064   1.788       .  S
O1061      C1062   1.260       .  A
C1062      C1482   1.486       .  S
C1063      C1440   1.485       .  S
C1066      C1527   1.477       .  S
C1067      O1068   1.263       .  A
C1067      C1426   1.481       .  S
O1069      C1084   1.259       .  A
O1069     Al1077   1.905       .  S
C1070      O1080   1.260       .  A
C1070      O1071   1.264       .  A
C1070      C1373   1.474       .  S
O1071     Al1073   1.903       .  S
O1072      C1074   1.261       .  A
O1072     Al1073   1.894       .  S
Al1073     O1081   1.909       .  S
Al1073     O1083   1.904       .  S
Al1073     O1082   1.780       .  S
C1074      O1087   1.263       .  A
C1074      C1384   1.476       .  S
O1075      C1085   1.255       .  A
O1075     Al1077   1.878       .  S
O1076      C1089   1.263       .  A
O1076     Al1086   1.899       .  S
Al1077     O1090   1.910       .  S
Al1077     O1087   1.916       .  S
Al1077     O1082   1.780       .  S
O1078      C1085   1.260       .  A
O1078     Al1086   1.924       .  S
O1079      C1088   1.263       .  A
O1079     Al1086   1.928       .  S
O1080     Al1086   1.895       .  S
O1081      C1088   1.262       .  A
O1082     Al1086   1.795       .  S
O1083      C1084   1.260       .  A
C1084      C1398   1.484       .  S
C1085      C1356   1.489       .  S
C1088      C1412   1.478       .  S
C1089      O1090   1.268       .  A
C1089      C1342   1.487       .  S
O1091      C1106   1.255       .  A
C1092      O1102   1.259       .  A
C1092      O1093   1.264       .  A
C1092      C1401   1.478       .  S
O1094      C1096   1.263       .  A
Al1095     O1103   1.912       .  S
Al1095     O1105   1.899       .  S
Al1095     O1104   1.782       .  S
C1096      O1109   1.265       .  A
C1096      C1387   1.482       .  S
O1097      C1107   1.255       .  A
O1097     Al1099   1.877   1_655  S
O1098      C1111   1.258       .  A
O1098     Al1108   1.888       .  S
Al1099     O1109   1.918   1_455  S
O1100      C1107   1.262       .  A
O1101      C1110   1.266       .  A
O1101     Al1108   1.918       .  S
O1103      C1110   1.261       .  A
O1104     Al1108   1.782       .  S
O1105      C1106   1.261       .  A
C1106      C1370   1.473       .  S
C1107      C1443   1.469       .  S
C1110      C1415   1.486       .  S
C1111      O1112   1.264       .  A
C1111      C1429   1.470       .  S
O1113      C1128   1.260       .  A
O1113     Al1121   1.883       .  S
C1114      O1124   1.262       .  A
C1114      O1115   1.252       .  A
C1114      C1286   1.474       .  S
O1115     Al1117   1.880       .  S
O1116      C1118   1.267       .  A
O1116     Al1117   1.906       .  S
Al1117     O1125   1.915       .  S
Al1117     O1127   1.872       .  S
Al1117     O1126   1.796       .  S
C1118      O1131   1.259       .  A
C1118      C1303   1.485       .  S
O1119      C1129   1.260       .  A
O1119     Al1121   1.902       .  S
O1120      C1133   1.260       .  A
O1120     Al1130   1.895       .  S
Al1121     O1134   1.898       .  S
Al1121     O1131   1.899       .  S
Al1121     O1126   1.795       .  S
O1122      C1129   1.265       .  A
O1122     Al1130   1.914       .  S
O1123      C1132   1.265       .  A
O1123     Al1130   1.915       .  S
O1124     Al1130   1.901       .  S
O1125      C1132   1.265       .  A
O1126     Al1130   1.779       .  S
O1127      C1128   1.252       .  A
C1128      C1317   1.463       .  S
C1129      C1359   1.486       .  S
C1132      C1328   1.492       .  S
C1133      O1134   1.256       .  A
C1133      C1345   1.483       .  S
O1135      C1150   1.258       .  A
C1136      O1146   1.264       .  A
C1136      O1137   1.259       .  A
C1136      C1289   1.473       .  S
O1138      C1140   1.261       .  A
Al1139     O1147   1.907       .  S
Al1139     O1149   1.880       .  S
Al1139     O1148   1.801   1_655  S
C1140      O1153   1.266       .  A
C1140      C1331   1.471       .  S
O1141      C1151   1.259       .  A
O1141     Al1143   1.897       .  S
O1142      C1155   1.263       .  A
O1142     Al1152   1.892   1_655  S
Al1143     O1153   1.906       .  S
O1144      C1151   1.261       .  A
O1145      C1154   1.261       .  A
O1145     Al1152   1.914   1_655  S
O1147      C1154   1.261       .  A
O1148     Al1152   1.782       .  S
O1149      C1150   1.251       .  A
C1150      C1314   1.460       .  S
C1151      C1258   1.493       .  S
C1154      C1300   1.468       .  S
C1155      O1156   1.264       .  A
C1155      C1275   1.492       .  S
O1157      C1172   1.258       .  A
O1157     Al1165   1.893       .  S
C1158      O1168   1.262       .  A
C1158      O1159   1.265       .  A
C1158      C1233   1.485       .  S
O1159     Al1161   1.906       .  S
O1160      C1162   1.258       .  A
Al1161     O1169   1.883       .  S
Al1161     O1170   1.781       .  S
C1162      O1175   1.258       .  A
C1162      C1247   1.465       .  S
O1163     Al1165   1.881       .  S
O1164     Al1174   1.879       .  S
Al1165     O1178   1.904       .  S
Al1165     O1175   1.896       .  S
O1166      C1173   1.257       .  A
O1166     Al1174   1.907       .  S
O1167      C1176   1.258       .  A
O1167     Al1174   1.903       .  S
O1168     Al1174   1.907       .  S
O1169      C1176   1.257       .  A
O1170     Al1174   1.793       .  S
O1171      C1172   1.261       .  A
C1172      C1202   1.477       .  S
C1173      C1457   1.480       .  S
C1176      C1216   1.467       .  S
C1177      O1178   1.260       .  A
C1177      C1468   1.477       .  S
O1179      C1194   1.259       .  A
O1179     Al1187   1.910       .  S
C1180      O1190   1.256       .  A
C1180      O1181   1.259       .  A
C1180      C1205   1.475       .  S
O1181     Al1183   1.909       .  S
O1182      C1184   1.263       .  A
O1182     Al1183   1.899       .  S
Al1183     O1191   1.884       .  S
Al1183     O1193   1.902       .  S
Al1183     O1192   1.787       .  S
C1184      O1197   1.270       .  A
C1184      C1244   1.489       .  S
O1185      C1195   1.258       .  A
O1185     Al1187   1.884       .  S
O1186      C1199   1.258       .  A
O1186     Al1196   1.894       .  S
Al1187     O1200   1.915       .  S
Al1187     O1197   1.940       .  S
Al1187     O1192   1.784       .  S
O1188      C1195   1.258       .  A
O1188     Al1196   1.885       .  S
O1189      C1198   1.263       .  A
O1189     Al1196   1.909       .  S
O1190     Al1196   1.904       .  S
O1191      C1198   1.261       .  A
O1192     Al1196   1.793       .  S
O1193      C1194   1.260       .  A
C1194      C1230   1.487       .  S
C1195      C1261   1.464       .  S
C1198      C1219   1.467       .  S
C1199      O1200   1.264       .  A
C1199      C1272   1.486       .  S
C1201      C1202   1.402       .  A
C1201      C1206   1.400       .  A
C1201      H1208   1.090       .  S
C1202      C1203   1.411       .  A
C1203      C1204   1.404       .  A
C1203      N1210   1.430       .  S
C1204      C1205   1.403       .  A
C1204      H1209   1.090       .  S
C1205      C1206   1.410       .  A
C1206      N1207   1.430       .  S
N1207      O1211   1.262       .  A
N1207      O1212   1.262       .  A
N1210      O1214   1.262       .  A
N1210      O1213   1.262       .  A
C1215      C1216   1.399       .  A
C1215      C1220   1.395       .  A
C1215      H1222   1.079       .  S
C1216      C1217   1.411       .  A
C1217      C1218   1.394       .  A
C1217      N1224   1.427       .  S
C1218      C1219   1.399       .  A
C1218      H1223   1.079       .  S
C1219      C1220   1.410       .  A
C1220      N1221   1.425       .  S
N1221      O1225   1.262       .  A
N1221      O1226   1.262       .  A
N1224      O1228   1.261       .  A
N1224      O1227   1.262       .  A
C1229      C1230   1.407       .  A
C1229      C1234   1.398       .  A
C1229      H1236   1.078       .  S
C1230      C1743   1.413       .  A
C1231      C1742   1.412   1_545  A
C1231      C1232   1.396       .  A
C1231      N1238   1.429       .  S
C1232      C1233   1.407       .  A
C1232      H1237   1.079       .  S
C1233      C1746   1.413       .  A
C1234      C1745   1.414       .  A
C1234      N1235   1.428       .  S
N1235      O1239   1.262       .  A
N1235      O1752   1.262       .  A
N1238      O1242   1.262       .  A
N1238      O1241   1.262       .  A
O1240      N1747   1.262       .  A
C1243      C1756   1.413   1_545  A
C1243      C1248   1.404       .  A
C1243      H1250   1.085       .  S
C1244      C1755   1.410       .  A
C1244      C1245   1.416       .  A
C1245      C1246   1.397       .  A
C1245      N1252   1.427       .  S
C1246      C1759   1.397       .  A
C1246      H1251   1.082       .  S
C1247      C1758   1.393       .  A
C1247      C1248   1.403       .  A
C1248      N1249   1.430       .  S
N1249      O1253   1.262       .  A
N1249      O1254   1.262       .  A
N1252      O1256   1.262       .  A
N1252      O1255   1.262       .  A
C1257      C1258   1.413       .  A
C1257      C1262   1.402       .  A
C1257      H1264   1.087       .  S
C1258      C1259   1.421       .  A
C1259      C1260   1.395       .  A
C1259      N1266   1.428       .  S
C1260      C1261   1.395       .  A
C1260      H1265   1.085       .  S
C1261      C1262   1.404       .  A
C1262      N1263   1.430       .  S
N1263      O1267   1.262       .  A
N1263      O1268   1.262       .  A
N1266      O1270   1.262       .  A
N1266      O1269   1.262       .  A
C1271      C1272   1.403       .  A
C1271      C1276   1.400       .  A
C1271      H1278   1.077       .  S
C1272      C1273   1.415       .  A
C1273      C1274   1.400       .  A
C1273      N1280   1.428       .  S
C1274      C1275   1.406       .  A
C1274      H1279   1.076       .  S
C1275      C1276   1.417       .  A
C1276      N1277   1.428       .  S
N1277      O1281   1.262       .  A
N1277      O1282   1.262       .  A
N1280      O1284   1.262       .  A
N1280      O1283   1.261       .  A
C1285      C1286   1.399       .  A
C1285      C1290   1.396       .  A
C1285      H1292   1.075       .  S
C1286      C1287   1.418       .  A
C1287      C1288   1.394       .  A
C1287      N1294   1.429       .  S
C1288      C1289   1.398       .  A
C1288      H1293   1.075       .  S
C1289      C1290   1.416       .  A
C1290      N1291   1.428       .  S
N1291      O1295   1.262       .  A
N1291      O1296   1.262       .  A
N1294      O1298   1.262       .  A
N1294      O1297   1.262       .  A
C1299      C1300   1.395       .  A
C1299      C1304   1.397       .  A
C1299      H1306   1.078       .  S
C1300      C1301   1.409       .  A
C1301      C1302   1.401       .  A
C1301      N1308   1.427       .  S
C1302      C1303   1.405       .  A
C1302      H1307   1.077       .  S
C1303      C1304   1.421       .  A
C1304      N1305   1.430       .  S
N1305      O1309   1.262       .  A
N1305      O1310   1.262       .  A
N1308      O1312   1.262       .  A
N1308      O1311   1.262       .  A
C1313      C1826   1.397       .  A
C1313      C1318   1.387   1_565  A
C1313      H1320   1.080   1_565  S
C1314      C1825   1.396       .  A
C1314      C1315   1.413       .  A
C1315      C1316   1.387       .  A
C1315      N1322   1.425       .  S
C1316      C1829   1.396       .  A
C1316      H1321   1.078       .  S
C1317      C1828   1.397   1_545  A
C1317      C1318   1.415       .  A
C1318      N1319   1.429       .  S
N1319      O1323   1.262       .  A
N1319      O1324   1.262       .  A
N1322      O1326   1.262       .  A
N1322      O1325   1.261       .  A
C1327      C1328   1.409       .  A
C1327      C1844   1.401   1_545  A
C1327      H1334   1.078       .  S
C1328      C1329   1.416       .  A
C1329      C1330   1.403   1_545  A
C1329      N1336   1.428       .  S
C1330      C1843   1.401       .  A
C1330      H1335   1.079       .  S
C1331      C1842   1.399       .  A
C1331      C1332   1.410       .  A
C1332      C1839   1.399       .  A
C1332      N1333   1.427       .  S
N1333      O1337   1.261       .  A
N1333      O1338   1.259       .  A
N1336      O1340   1.262       .  A
N1336      O1339   1.262       .  A
C1341      C1854   1.404       .  A
C1341      C1346   1.394   1_565  A
C1341      H1348   1.079       .  S
C1342      C1853   1.406       .  A
C1342      C1343   1.417       .  A
C1343      C1344   1.401       .  A
C1343      N1350   1.428       .  S
C1344      C1857   1.402       .  A
C1344      H1349   1.079       .  S
C1345      C1856   1.405       .  A
C1345      C1346   1.416       .  A
C1346      N1347   1.430       .  S
N1347      O1351   1.262       .  A
N1347      O1352   1.262   1_545  A
N1350      O1354   1.262       .  A
N1350      O1353   1.262       .  A
C1355      C1356   1.407       .  A
C1355      C1360   1.400       .  A
C1355      H1362   1.076       .  S
C1356      C1357   1.414       .  A
C1357      C1358   1.400       .  A
C1357      N1364   1.427       .  S
C1358      C1359   1.404       .  A
C1358      H1363   1.079       .  S
C1359      C1360   1.413       .  A
C1360      N1361   1.428       .  S
N1361      O1365   1.262       .  A
N1361      O1366   1.262       .  A
N1364      O1368   1.260       .  A
N1364      O1367   1.261       .  A
C1369      C1370   1.402       .  A
C1369      C1374   1.394       .  A
C1369      H1376   1.080       .  S
C1370      C1371   1.412       .  A
C1371      C1372   1.393       .  A
C1371      N1378   1.428       .  S
C1372      C1373   1.403       .  A
C1372      H1377   1.080       .  S
C1373      C1374   1.410       .  A
C1374      N1375   1.425       .  S
N1375      O1379   1.262       .  A
N1375      O1380   1.260       .  A
N1378      O1382   1.262       .  A
N1378      O1381   1.262       .  A
C1383      C1384   1.399       .  A
C1383      C1388   1.398       .  A
C1383      H1390   1.080       .  S
C1384      C1385   1.412       .  A
C1385      C1386   1.402       .  A
C1385      N1392   1.428       .  S
C1386      C1387   1.404       .  A
C1386      H1391   1.080       .  S
C1387      C1388   1.414       .  A
C1388      N1389   1.428       .  S
N1389      O1393   1.262       .  A
N1389      O1394   1.262       .  A
N1392      O1396   1.262       .  A
N1392      O1395   1.261       .  A
C1397      C1398   1.405       .  A
C1397      C1914   1.401       .  A
C1397      H1404   1.079       .  S
C1398      C1399   1.412       .  A
C1399      C1912   1.400       .  A
C1399      N1406   1.428       .  S
C1400      C1911   1.397   1_545  A
C1400      C1401   1.405       .  A
C1400      H1405   1.078       .  S
C1401      C1402   1.413       .  A
C1402      C1909   1.397   1_545  A
C1402      N1403   1.429       .  S
N1403      O1407   1.262       .  A
N1403      O1408   1.262   1_545  A
N1406      O1410   1.262       .  A
N1406      O1409   1.262       .  A
C1411      C1924   1.399   1_545  A
C1411      C1416   1.405       .  A
C1411      H1418   1.078       .  S
C1412      C1923   1.402       .  A
C1412      C1413   1.409       .  A
C1413      C1414   1.398       .  A
C1413      N1420   1.428       .  S
C1414      C1927   1.403       .  A
C1414      H1419   1.077       .  S
C1415      C1926   1.405   1_545  A
C1415      C1416   1.418       .  A
C1416      N1417   1.428       .  S
N1417      O1421   1.262       .  A
N1417      O1422   1.262       .  A
N1420      O1424   1.262       .  A
N1420      O1423   1.262       .  A
C1425      C1426   1.407       .  A
C1425      C1430   1.395       .  A
C1425      H1432   1.079       .  S
C1426      C1427   1.414       .  A
C1427      C1428   1.393       .  A
C1427      N1434   1.427       .  S
C1428      C1429   1.400       .  A
C1428      H1433   1.080       .  S
C1429      C1430   1.410       .  A
C1430      N1431   1.429       .  S
N1431      O1435   1.262       .  A
N1431      O1436   1.262       .  A
N1434      O1438   1.260       .  A
N1434      O1437   1.262       .  A
C1439      C1440   1.404       .  A
C1439      C1444   1.396       .  A
C1439      H1446   1.078       .  S
C1440      C1441   1.421       .  A
C1441      C1442   1.397       .  A
C1441      N1448   1.429       .  S
C1442      C1443   1.397       .  A
C1442      H1447   1.077       .  S
C1443      C1444   1.410       .  A
C1444      N1445   1.428       .  S
N1445      O1449   1.261       .  A
N1445      O1450   1.262       .  A
N1448      O1452   1.262       .  A
N1448      O1451   1.262       .  A
C1453      C1454   1.398   1_655  A
C1453      C1970   1.397   1_556  A
C1453      H1460   1.080       .  S
C1455      C1968   1.396       .  A
C1455      N1462   1.429       .  S
C1456      C1967   1.394   1_545  A
C1456      H1461   1.079       .  S
C1457      C1458   1.418       .  A
C1458      C1965   1.397   1_544  A
C1458      N1459   1.429       .  S
N1459      O1463   1.262   1_554  A
N1459      O1464   1.262       .  A
N1462      O1466   1.262       .  A
N1462      O1465   1.262   1_554  A
C1467      C1472   1.391   1_554  A
C1467      H1474   1.081       .  S
C1468      C1469   1.416       .  A
C1469      C1470   1.394   1_554  A
C1469      N1476   1.428       .  S
C1470      C1471   1.399       .  A
C1470      H1475   1.083       .  S
C1472      N1473   1.429       .  S
N1473      O1477   1.262       .  A
N1476      O1480   1.262       .  A
C1481      C1482   1.406       .  A
C1481      C1486   1.395       .  A
C1481      H1488   1.079       .  S
C1482      C1483   1.412       .  A
C1483      C1484   1.400       .  A
C1483      N1490   1.426       .  S
C1484      C1485   1.407       .  A
C1484      H1489   1.078       .  S
C1485      C1486   1.412       .  A
C1486      N1487   1.428       .  S
N1487      O1491   1.262       .  A
N1487      O1492   1.262       .  A
N1490      O1494   1.262       .  A
N1490      O1493   1.262       .  A
C1495      C1496   1.402       .  A
C1495      C1500   1.401       .  A
C1495      H1502   1.080       .  S
C1496      C1497   1.416       .  A
C1497      C1498   1.401       .  A
C1497      N1504   1.428       .  S
C1498      C1499   1.401       .  A
C1498      H1503   1.080       .  S
C1499      C1500   1.414       .  A
C1500      N1501   1.428       .  S
N1501      O1505   1.261       .  A
N1501      O1506   1.261       .  A
N1504      O1508   1.262       .  A
N1504      O1507   1.261       .  A
C1509      C2022   1.398   1_545  A
C1509      C1514   1.398       .  A
C1509      H1516   1.080       .  S
C1510      C2021   1.399       .  A
C1510      C1511   1.412       .  A
C1511      C1512   1.393       .  A
C1511      N1518   1.426       .  S
C1512      C2025   1.399       .  A
C1512      H1517   1.078       .  S
C1513      C2024   1.397   1_545  A
C1513      C1514   1.414       .  A
C1514      N1515   1.426       .  S
N1515      O1519   1.261       .  A
N1515      O1520   1.262       .  A
N1518      O1522   1.262       .  A
N1518      O1521   1.262       .  A
C1523      C1524   1.400       .  A
C1523      C1528   1.398       .  A
C1523      H1530   1.082       .  S
C1524      C2037   1.413       .  A
C1525      C2036   1.414   1_545  A
C1525      C1526   1.400       .  A
C1525      N1532   1.428   1_545  S
C1526      C1527   1.401       .  A
C1526      H1531   1.081       .  S
C1527      C2040   1.413       .  A
C1528      C2039   1.413       .  A
C1528      N1529   1.427       .  S
N1529      O1533   1.262       .  A
N1529      O2046   1.262       .  A
N1532      O1536   1.262   1_565  A
N1532      O2047   1.262       .  A
O1534      N2041   1.262       .  A
O1535      N2044   1.261       .  A
O1537      C1552   1.257       .  A
O1537     Al1545   1.891       .  S
C1538      O1548   1.256       .  A
C1538      O1539   1.258       .  A
C1538      C1997   1.479       .  S
O1539     Al1541   1.888       .  S
O1540      C1542   1.263       .  A
Al1541     O1549   1.897       .  S
Al1541     O1550   1.794       .  S
C1542      O1555   1.268       .  A
C1542      C2011   1.486       .  S
O1543     Al1545   1.887       .  S
O1544     Al1554   1.879       .  S
Al1545     O1558   1.910       .  S
Al1545     O1555   1.929       .  S
O1546      C1553   1.261       .  A
O1546     Al1554   1.900       .  S
O1547      C1556   1.265       .  A
O1547     Al1554   1.923       .  S
O1548     Al1554   1.894       .  S
O1549      C1556   1.264       .  A
O1550     Al1554   1.798       .  S
O1551      C1552   1.255       .  A
C1552      C2022   1.467       .  S
C1553      C1983   1.470       .  S
C1556      C2036   1.482       .  S
C1557      O1558   1.262   1_455  A
C1557      C1966   1.470       .  S
O1559      C1574   1.258       .  A
O1559     Al1567   1.901       .  S
C1560      O1570   1.262       .  A
C1560      O1561   1.257       .  A
C1560      C2025   1.475       .  S
O1561     Al1563   1.898       .  S
O1562      C1564   1.261       .  A
O1562     Al1563   1.903       .  S
Al1563     O1571   1.898       .  S
Al1563     O1573   1.878       .  S
Al1563     O1572   1.797       .  S
C1564      O1577   1.267       .  A
C1564      C2008   1.487       .  S
O1565      C1575   1.262       .  A
O1565     Al1567   1.889       .  S
O1566      C1579   1.259       .  A
O1566     Al1576   1.873       .  S
Al1567     O1580   1.924       .  S
Al1567     O1577   1.925       .  S
Al1567     O1572   1.786       .  S
O1568      C1575   1.260       .  A
O1568     Al1576   1.921       .  S
O1569      C1578   1.261       .  A
O1569     Al1576   1.914       .  S
O1570     Al1576   1.891       .  S
O1571      C1578   1.260       .  A
O1572     Al1576   1.785       .  S
O1573      C1574   1.257       .  A
C1574      C1994   1.478       .  S
C1575      C1952   1.489       .  S
C1578      C2039   1.479       .  S
C1579      O1580   1.262       .  A
C1579      C1938   1.484       .  S
O1581      C1596   1.259       .  A
O1581     Al1589   1.897       .  S
C1582      O1592   1.262       .  A
C1582      O1583   1.264       .  A
C1582      C1885   1.481       .  S
O1583     Al1585   1.908       .  S
O1584      C1586   1.260       .  A
O1584     Al1585   1.887       .  S
Al1585     O1593   1.901       .  S
Al1585     O1595   1.902       .  S
Al1585     O1594   1.776       .  S
C1586      O1599   1.261       .  A
C1586      C1896   1.473       .  S
O1587      C1597   1.257       .  A
O1587     Al1589   1.871       .  S
O1588      C1601   1.264       .  A
O1588     Al1598   1.905       .  S
Al1589     O1602   1.899       .  S
Al1589     O1599   1.913       .  S
Al1589     O1594   1.781       .  S
O1590      C1597   1.258       .  A
O1590     Al1598   1.908       .  S
O1591      C1600   1.261       .  A
O1591     Al1598   1.916       .  S
O1592     Al1598   1.904       .  S
O1593      C1600   1.260       .  A
O1594     Al1598   1.791       .  S
O1595      C1596   1.261       .  A
C1596      C1910   1.478       .  S
C1597      C1868   1.477       .  S
C1600      C1924   1.467       .  S
C1601      O1602   1.264       .  A
C1601      C1854   1.480       .  S
O1603      C1618   1.257       .  A
C1604      O1614   1.258       .  A
C1604      O1605   1.265       .  A
C1604      C1913   1.484       .  S
O1606      C1608   1.263       .  A
Al1607     O1615   1.910       .  S
Al1607     O1617   1.905       .  S
Al1607     O1616   1.784       .  S
C1608      O1621   1.263       .  A
C1608      C1899   1.473       .  S
O1609      C1619   1.257       .  A
O1609     Al1611   1.887   1_655  S
O1610      C1623   1.259       .  A
O1610     Al1620   1.892       .  S
Al1611     O1621   1.908   1_455  S
O1612      C1619   1.263       .  A
O1613      C1622   1.270       .  A
O1613     Al1620   1.934       .  S
O1615      C1622   1.261       .  A
O1616     Al1620   1.784       .  S
O1617      C1618   1.261       .  A
C1618      C1882   1.483       .  S
C1619      C1955   1.476       .  S
C1622      C1927   1.487       .  S
C1623      O1624   1.261       .  A
C1623      C1941   1.470       .  S
O1625      C1640   1.258       .  A
O1625     Al1633   1.869       .  S
C1626      O1636   1.260       .  A
C1626      O1627   1.253       .  A
C1626      C1798   1.472       .  S
O1627     Al1629   1.886       .  S
O1628      C1630   1.261       .  A
O1628     Al1629   1.890       .  S
Al1629     O1637   1.898       .  S
Al1629     O1639   1.883       .  S
Al1629     O1638   1.793       .  S
C1630      O1643   1.262       .  A
C1630      C1815   1.466       .  S
O1631      C1641   1.259       .  A
O1631     Al1633   1.883       .  S
O1632      C1645   1.259       .  A
O1632     Al1642   1.897       .  S
Al1633     O1646   1.898       .  S
Al1633     O1643   1.908       .  S
Al1633     O1638   1.787       .  S
O1634      C1641   1.265       .  A
O1634     Al1642   1.912       .  S
O1635      C1644   1.267       .  A
O1635     Al1642   1.914       .  S
O1636     Al1642   1.897       .  S
O1637      C1644   1.261       .  A
O1638     Al1642   1.775       .  S
O1639      C1640   1.255       .  A
C1640      C1829   1.458       .  S
C1641      C1871   1.471       .  S
C1644      C1840   1.479       .  S
C1645      O1646   1.256       .  A
C1645      C1857   1.476       .  S
O1647      C1662   1.260       .  A
C1648      O1658   1.264       .  A
C1648      O1649   1.258       .  A
C1648      C1801   1.472       .  S
O1650      C1652   1.265       .  A
Al1651     O1659   1.902       .  S
Al1651     O1661   1.872       .  S
Al1651     O1660   1.795       .  S
C1652      O1665   1.262       .  A
C1652      C1843   1.474       .  S
O1653      C1663   1.262       .  A
O1653     Al1655   1.899       .  S
O1654      C1667   1.262       .  A
O1654     Al1664   1.897       .  S
Al1655     O1665   1.904       .  S
O1656      C1663   1.261       .  A
O1657      C1666   1.263       .  A
O1657     Al1664   1.910       .  S
O1659      C1666   1.258       .  A
O1660     Al1664   1.780       .  S
O1661      C1662   1.251       .  A
C1662      C1826   1.464       .  S
C1663      C1770   1.488       .  S
C1666      C1812   1.464       .  S
C1667      O1668   1.260       .  A
C1667      C1787   1.488       .  S
O1669      C1684   1.259       .  A
O1669     Al1677   1.889       .  S
C1670      O1680   1.261       .  A
C1670      O1671   1.264       .  A
C1670      C1745   1.488       .  S
O1671     Al1673   1.909       .  S
O1672      C1674   1.259       .  A
Al1673     O1681   1.889       .  S
Al1673     O1682   1.786       .  S
C1674      O1687   1.259       .  A
C1674      C1759   1.473       .  S
O1675     Al1677   1.881       .  S
O1676     Al1686   1.877       .  S
Al1677     O1690   1.914       .  S
Al1677     O1687   1.897       .  S
O1678      C1685   1.260       .  A
O1678     Al1686   1.910       .  S
O1679      C1688   1.260       .  A
O1679     Al1686   1.909       .  S
O1680     Al1686   1.903       .  S
O1681      C1688   1.259       .  A
O1682     Al1686   1.789       .  S
O1683      C1684   1.262       .  A
C1684      C1714   1.470       .  S
C1685      C1969   1.483       .  S
C1688      C1728   1.476       .  S
C1689      O1690   1.260       .  A
C1689      C1980   1.482       .  S
O1691      C1706   1.258       .  A
O1691     Al1699   1.899       .  S
C1692      O1702   1.254       .  A
C1692      O1693   1.258       .  A
C1692      C1717   1.467       .  S
O1693     Al1695   1.907       .  S
O1694      C1696   1.264       .  A
O1694     Al1695   1.906       .  S
Al1695     O1703   1.895       .  S
Al1695     O1705   1.901       .  S
Al1695     O1704   1.786       .  S
C1696      O1709   1.270       .  A
C1696      C1756   1.497       .  S
O1697      C1707   1.256       .  A
O1697     Al1699   1.872       .  S
O1698      C1711   1.256       .  A
O1698     Al1708   1.884       .  S
Al1699     O1712   1.919       .  S
Al1699     O1709   1.940       .  S
Al1699     O1704   1.782       .  S
O1700      C1707   1.257       .  A
O1700     Al1708   1.886       .  S
O1701      C1710   1.264       .  A
O1701     Al1708   1.914       .  S
O1702     Al1708   1.892       .  S
O1703      C1710   1.263       .  A
O1704     Al1708   1.792       .  S
O1705      C1706   1.260       .  A
C1706      C1742   1.482       .  S
C1707      C1773   1.456       .  S
C1710      C1731   1.473       .  S
C1711      O1712   1.266       .  A
C1711      C1784   1.481       .  S
C1713      C1714   1.402       .  A
C1713      C1718   1.398       .  A
C1713      H1720   1.091       .  S
C1714      C1715   1.409       .  A
C1715      C1716   1.401       .  A
C1715      N1722   1.430       .  S
C1716      C1717   1.402       .  A
C1716      H1721   1.091       .  S
C1717      C1718   1.407       .  A
C1718      N1719   1.430       .  S
N1719      O1723   1.262       .  A
N1719      O1724   1.262       .  A
N1722      O1726   1.262       .  A
N1722      O1725   1.262       .  A
C1727      C1728   1.400       .  A
C1727      C1732   1.398       .  A
C1727      H1734   1.078       .  S
C1728      C1729   1.412       .  A
C1729      C1730   1.398       .  A
C1729      N1736   1.425       .  S
C1730      C1731   1.397       .  A
C1730      H1735   1.078       .  S
C1731      C1732   1.411       .  A
C1732      N1733   1.424       .  S
N1733      O1737   1.260       .  A
N1733      O1738   1.262       .  A
N1736      O1740   1.261       .  A
N1736      O1739   1.262       .  A
C1741      C1742   1.406       .  A
C1741      C1746   1.398   1_565  A
C1741      H1748   1.079       .  S
C1743      C1744   1.400       .  A
C1743      N1750   1.429       .  S
C1744      C1745   1.408       .  A
C1744      H1749   1.078       .  S
C1746      N1747   1.428       .  S
N1747      O1751   1.262   1_545  A
N1750      O1754   1.262       .  A
N1750      O1753   1.262       .  A
C1755      C1760   1.407       .  A
C1755      H1762   1.085       .  S
C1756      C1757   1.421       .  A
C1757      C1758   1.398   1_565  A
C1757      N1764   1.427       .  S
C1758      H1763   1.082       .  S
C1759      C1760   1.407       .  A
C1760      N1761   1.430       .  S
N1761      O1765   1.262       .  A
N1761      O1766   1.262       .  A
N1764      O1768   1.262       .  A
N1764      O1767   1.262       .  A
C1769      C1770   1.411       .  A
C1769      C1774   1.400       .  A
C1769      H1776   1.088       .  S
C1770      C1771   1.422       .  A
C1771      C1772   1.394       .  A
C1771      N1778   1.428       .  S
C1772      C1773   1.392       .  A
C1772      H1777   1.085       .  S
C1773      C1774   1.403       .  A
C1774      N1775   1.431       .  S
N1775      O1779   1.262       .  A
N1775      O1780   1.262       .  A
N1778      O1782   1.262       .  A
N1778      O1781   1.262       .  A
C1783      C1784   1.400       .  A
C1783      C1788   1.397       .  A
C1783      H1790   1.076       .  S
C1784      C1785   1.415       .  A
C1785      C1786   1.400       .  A
C1785      N1792   1.429       .  S
C1786      C1787   1.404       .  A
C1786      H1791   1.075       .  S
C1787      C1788   1.417       .  A
C1788      N1789   1.428       .  S
N1789      O1793   1.262       .  A
N1789      O1794   1.262       .  A
N1792      O1796   1.262       .  A
N1792      O1795   1.260       .  A
C1797      C1798   1.398       .  A
C1797      C1802   1.393       .  A
C1797      H1804   1.074       .  S
C1798      C1799   1.416       .  A
C1799      C1800   1.399       .  A
C1799      N1806   1.429       .  S
C1800      C1801   1.400       .  A
C1800      H1805   1.074       .  S
C1801      C1802   1.414       .  A
C1802      N1803   1.429       .  S
N1803      O1807   1.262       .  A
N1803      O1808   1.262       .  A
N1806      O1810   1.262       .  A
N1806      O1809   1.262       .  A
C1811      C1812   1.397       .  A
C1811      C1816   1.391       .  A
C1811      H1818   1.078       .  S
C1812      C1813   1.410       .  A
C1813      C1814   1.400       .  A
C1813      N1820   1.427       .  S
C1814      C1815   1.402       .  A
C1814      H1819   1.079       .  S
C1815      C1816   1.411       .  A
C1816      N1817   1.429       .  S
N1817      O1821   1.262       .  A
N1817      O1822   1.262       .  A
N1820      O1824   1.261       .  A
N1820      O1823   1.262       .  A
C1825      C1830   1.386       .  A
C1825      H1832   1.078       .  S
C1826      C1827   1.417       .  A
C1827      C1828   1.390       .  A
C1827      N1834   1.430       .  S
C1828      H1833   1.080       .  S
C1829      C1830   1.410       .  A
C1830      N1831   1.425       .  S
N1831      O1835   1.262       .  A
N1831      O1836   1.260       .  A
N1834      O1838   1.261       .  A
N1834      O1837   1.262       .  A
C1839      C1840   1.404       .  A
C1839      H1846   1.078       .  S
C1840      C1841   1.412       .  A
C1841      C1842   1.397       .  A
C1841      N1848   1.426       .  S
C1842      H1847   1.079       .  S
C1843      C1844   1.407       .  A
C1844      N1845   1.428       .  S
N1845      O1849   1.261       .  A
N1845      O1850   1.262       .  A
N1848      O1852   1.261       .  A
N1848      O1851   1.260       .  A
C1853      C1858   1.394       .  A
C1853      H1860   1.079       .  S
C1854      C1855   1.411       .  A
C1855      C1856   1.399   1_565  A
C1855      N1862   1.427       .  S
C1856      H1861   1.078       .  S
C1857      C1858   1.411       .  A
C1858      N1859   1.429       .  S
N1859      O1863   1.262       .  A
N1859      O1864   1.262       .  A
N1862      O1866   1.262       .  A
N1862      O1865   1.262       .  A
C1867      C1868   1.403       .  A
C1867      C1872   1.392       .  A
C1867      H1874   1.077       .  S
C1868      C1869   1.414       .  A
C1869      C1870   1.396       .  A
C1869      N1876   1.428       .  S
C1870      C1871   1.401       .  A
C1870      H1875   1.081       .  S
C1871      C1872   1.410       .  A
C1872      N1873   1.429       .  S
N1873      O1877   1.262       .  A
N1873      O1878   1.262       .  A
N1876      O1880   1.261       .  A
N1876      O1879   1.262       .  A
C1881      C1882   1.406       .  A
C1881      C1886   1.399       .  A
C1881      H1888   1.078       .  S
C1882      C1883   1.413       .  A
C1883      C1884   1.397       .  A
C1883      N1890   1.428       .  S
C1884      C1885   1.405       .  A
C1884      H1889   1.077       .  S
C1885      C1886   1.411       .  A
C1886      N1887   1.428       .  S
N1887      O1891   1.262       .  A
N1887      O1892   1.262       .  A
N1890      O1894   1.262       .  A
N1890      O1893   1.262       .  A
C1895      C1896   1.400       .  A
C1895      C1900   1.395       .  A
C1895      H1902   1.080       .  S
C1896      C1897   1.412       .  A
C1897      C1898   1.399       .  A
C1897      N1904   1.427       .  S
C1898      C1899   1.401       .  A
C1898      H1903   1.079       .  S
C1899      C1900   1.412       .  A
C1900      N1901   1.427       .  S
N1901      O1905   1.262       .  A
N1901      O1906   1.262       .  A
N1904      O1908   1.261       .  A
N1904      O1907   1.262       .  A
C1909      C1910   1.404       .  A
C1909      H1916   1.078       .  S
C1910      C1911   1.412       .  A
C1911      N1918   1.428       .  S
C1912      C1913   1.404       .  A
C1912      H1917   1.079       .  S
C1913      C1914   1.415       .  A
C1914      N1915   1.429       .  S
N1915      O1919   1.262       .  A
N1915      O1920   1.262       .  A
N1918      O1922   1.262       .  A
N1918      O1921   1.262       .  A
C1923      C1928   1.408       .  A
C1923      H1930   1.076       .  S
C1924      C1925   1.406       .  A
C1925      C1926   1.394       .  A
C1925      N1932   1.429       .  S
C1926      H1931   1.078       .  S
C1927      C1928   1.418       .  A
C1928      N1929   1.429       .  S
N1929      O1933   1.262       .  A
N1929      O1934   1.262       .  A
N1932      O1936   1.262       .  A
N1932      O1935   1.262       .  A
C1937      C1938   1.407       .  A
C1937      C1942   1.394       .  A
C1937      H1944   1.077       .  S
C1938      C1939   1.415       .  A
C1939      C1940   1.396       .  A
C1939      N1946   1.428       .  S
C1940      C1941   1.402       .  A
C1940      H1945   1.079       .  S
C1941      C1942   1.407       .  A
C1942      N1943   1.429       .  S
N1943      O1947   1.262       .  A
N1943      O1948   1.262       .  A
N1946      O1950   1.261       .  A
N1946      O1949   1.262       .  A
C1951      C1952   1.405       .  A
C1951      C1956   1.397       .  A
C1951      H1958   1.078       .  S
C1952      C1953   1.419       .  A
C1953      C1954   1.401       .  A
C1953      N1960   1.429       .  S
C1954      C1955   1.400       .  A
C1954      H1959   1.075       .  S
C1955      C1956   1.410       .  A
C1956      N1957   1.428       .  S
N1957      O1961   1.261       .  A
N1957      O1962   1.262       .  A
N1960      O1964   1.262       .  A
N1960      O1963   1.262       .  A
C1965      C1966   1.399   1_655  A
C1965      H1972   1.079       .  S
C1967      N1974   1.428       .  S
C1968      H1973   1.080       .  S
C1969      C1970   1.417       .  A
C1970      N1971   1.428       .  S
N1971      O1975   1.262   1_554  A
N1971      O1976   1.262       .  A
N1974      O1978   1.262       .  A
N1974      O1977   1.262   1_554  A
C1979      C1984   1.395   1_554  A
C1979      H1986   1.055       .  S
C1980      C1981   1.415       .  A
C1981      C1982   1.398   1_554  A
C1981      N1988   1.429       .  S
C1982      C1983   1.402       .  A
C1982      H1987   1.065       .  S
C1984      N1985   1.429       .  S
N1985      O1989   1.261       .  A
N1988      O1992   1.262       .  A
C1993      C1994   1.407       .  A
C1993      C1998   1.394       .  A
C1993      H2000   1.079       .  S
C1994      C1995   1.410       .  A
C1995      C1996   1.394       .  A
C1995      N2002   1.428       .  S
C1996      C1997   1.407       .  A
C1996      H2001   1.079       .  S
C1997      C1998   1.412       .  A
C1998      N1999   1.429       .  S
N1999      O2003   1.262       .  A
N1999      O2004   1.262       .  A
N2002      O2006   1.262       .  A
N2002      O2005   1.262       .  A
C2007      C2008   1.403       .  A
C2007      C2012   1.401       .  A
C2007      H2014   1.079       .  S
C2008      C2009   1.416       .  A
C2009      C2010   1.404       .  A
C2009      N2016   1.428       .  S
C2010      C2011   1.403       .  A
C2010      H2015   1.079       .  S
C2011      C2012   1.414       .  A
C2012      N2013   1.427       .  S
N2013      O2017   1.261       .  A
N2013      O2018   1.261       .  A
N2016      O2020   1.262       .  A
N2016      O2019   1.261       .  A
C2021      C2026   1.395       .  A
C2021      H2028   1.078       .  S
C2022      C2023   1.410       .  A
C2023      C2024   1.392       .  A
C2023      N2030   1.425       .  S
C2024      H2029   1.080       .  S
C2025      C2026   1.416       .  A
C2026      N2027   1.427       .  S
N2027      O2031   1.262       .  A
N2027      O2032   1.261       .  A
N2030      O2034   1.261       .  A
N2030      O2033   1.262       .  A
C2035      C2036   1.403       .  A
C2035      C2040   1.400   1_565  A
C2035      H2042   1.081       .  S
C2037      C2038   1.401       .  A
C2037      N2044   1.428       .  S
C2038      C2039   1.402       .  A
C2038      H2043   1.081       .  S
C2040      N2041   1.429       .  S
N2041      O2045   1.262   1_545  A
N2044      O2048   1.262       .  A
