geometry optimzed in LAMMPS
_audit_creation_date              2020-11-30 
_audit_creation_method            'lammps2cif' 
_symmetry_space_group_name_H-M    'P1' 
_symmetry_Int_Tables_number       1 
_symmetry_cell_setting            triclinic 
loop_ 
_symmetry_equiv_pos_as_xyz 
  x,y,z 
_cell_length_a                    34.152652743936386 
_cell_length_b                    34.7474718722695 
_cell_length_c                    34.770014972766525 
_cell_angle_alpha                 90.89946578051166 
_cell_angle_beta                  89.7556275878863 
_cell_angle_gamma                 90.12793617209039 
loop_ 
_atom_site_label 
_atom_site_type_symbol 
_atom_site_fract_x 
_atom_site_fract_y 
_atom_site_fract_z 
_atom_site_charge 
O1          O  0.61472073  0.93477962  0.26763904    -0.79980
O2          O  0.45792481  0.09012057  0.25396829    -0.81530
O3          O  0.57301426  0.04541794  0.20189137    -0.78550
O4          O  0.56583287  0.04892151  0.32555734    -0.76940
O5          O  0.53239843  0.01567108  0.37172984    -0.78730
O6          O  0.53679003  0.01629777  0.15423706    -0.79660
O7          O  0.52491827  0.08933719  0.25385640    -0.80990
O8          O  0.61625542  0.00067973  0.26706608    -0.81280
Eu9        Eu  0.54762334  0.02251223  0.26273404     2.39200
O10         O  0.49079746  0.02354675  0.30129506    -0.88790
O11         O  0.54810288  0.96769566  0.22186845    -0.92390
C12         C  0.63272025  0.96741870  0.26984746     1.02300
C13         C  0.49166563  0.10652227  0.24969182     1.02120
C14         C  0.56298253  0.04049831  0.16656012     1.02060
C15         C  0.55640944  0.04205049  0.36067897     0.99920
H16         H  0.49197556  0.04353411  0.20779911     0.29670
O17         O  0.49157656  0.02138419  0.22411255    -1.01170
H18         H  0.56893269  0.96755747  0.31810397     0.29700
O19         O  0.54651471  0.96754229  0.30127680    -1.03710
O20         O  0.36577969  0.00055012  0.26775321    -0.80940
O21         O  0.52348978  0.84515196  0.25053941    -0.80480
O22         O  0.44817929  0.01716298  0.15370477    -0.78920
O23         O  0.44611660  0.01691353  0.37091195    -0.82260
O24         O  0.53307649  0.92053084  0.36980782    -0.80110
O25         O  0.53889854  0.92256274  0.15209958    -0.78760
O26         O  0.40837456  0.89391984  0.19927223    -0.80280
O27         O  0.41418414  0.88740521  0.32143370    -0.82200
O28         O  0.44458200  0.92231829  0.15179308    -0.78940
O29         O  0.44249743  0.92371579  0.36923224    -0.81620
O30         O  0.41154568  0.04652209  0.20108412    -0.77350
O31         O  0.57381651  0.89175577  0.19852661    -0.77390
O32         O  0.56602995  0.88695086  0.32250039    -0.77030
O33         O  0.41595572  0.05148006  0.32388376    -0.80530
O34         O  0.36801226  0.93480994  0.26631561    -0.79950
O35         O  0.45656308  0.84730956  0.25003101    -0.78280
Eu36       Eu  0.43468838  0.02330894  0.26214744     2.39770
Eu37       Eu  0.54682441  0.91251161  0.26055044     2.39570
Eu38       Eu  0.49170465  0.96825480  0.18241848     2.38400
Eu39       Eu  0.48974247  0.96835803  0.33984631     2.39880
Eu40       Eu  0.43558305  0.91399417  0.26041659     2.39790
O41         O  0.49073554  0.91262523  0.30010968    -0.92700
O42         O  0.43457776  0.96859541  0.22121635    -0.91590
C43         C  0.34961668  0.96690822  0.27006724     1.02470
C44         C  0.48937976  0.82939447  0.24589926     1.01190
C45         C  0.42227537  0.04179277  0.16587538     1.00580
C46         C  0.42333161  0.04403357  0.35919221     1.02600
C47         C  0.55732325  0.89428190  0.35792256     1.01510
C48         C  0.56514898  0.89823603  0.16320024     1.00360
C49         C  0.41736392  0.89928701  0.16388462     1.00420
C50         C  0.41943244  0.89662051  0.35702854     1.03030
H51         H  0.49120631  0.89200069  0.20389037     0.30410
O52         O  0.49138368  0.91401675  0.22113088    -1.04860
H53         H  0.41140168  0.96872609  0.31747969     0.32460
O54         O  0.43415694  0.96865615  0.30092090    -1.07420
C55         C  0.48205167  0.67673720  0.17478232     0.03280
C56         C  0.44608960  0.65830636  0.16530275    -0.12870
C57         C  0.44596704  0.62370655  0.14373519     0.00780
C58         C  0.48137860  0.60636491  0.13417290    -0.11390
C59         C  0.51689418  0.62458968  0.14133092     0.03270
C60         C  0.51749914  0.65948926  0.16223228    -0.10820
H61         H  0.41841584  0.67110337  0.17365323     0.08870
H62         H  0.48122207  0.57909218  0.11849382     0.06400
H63         H  0.54521563  0.67397010  0.16697861     0.06240
C64         C  0.48440633  0.25221456  0.17032562     0.03280
C65         C  0.44907250  0.26206783  0.15180499    -0.12870
C66         C  0.44783875  0.29334466  0.12666217     0.00780
C67         C  0.48191360  0.31447133  0.11991174    -0.11390
C68         C  0.51683517  0.30656784  0.13901456     0.03270
C69         C  0.51797052  0.27525191  0.16410848    -0.10820
H70         H  0.42288519  0.24498244  0.15585133     0.08870
H71         H  0.48092736  0.33787389  0.09974195     0.06400
H72         H  0.54494371  0.26897956  0.17898523     0.06240
C73         C  0.18919211  0.95579251  0.32361628     0.03280
C74         C  0.17070276  0.98953235  0.33761579    -0.12870
C75         C  0.13544159  0.98713502  0.35826813     0.00780
C76         C  0.11782169  0.95143187  0.36343458    -0.11390
C77         C  0.13672018  0.91768331  0.35217060     0.03270
C78         C  0.17177444  0.91964995  0.33121713    -0.10820
H79         H  0.18501417  0.01722669  0.33508375     0.08870
H80         H  0.09072410  0.94960857  0.37974844     0.06400
H81         H  0.18635410  0.89315562  0.32283150     0.06240
C82         C  0.79556803  0.95604207  0.31134706     0.03280
C83         C  0.81683850  0.98976863  0.32027488    -0.12870
C84         C  0.85367837  0.98734205  0.33789892     0.00780
C85         C  0.87052240  0.95108188  0.34271082    -0.11390
C86         C  0.84814414  0.91767515  0.33827022     0.03270
C87         C  0.81100599  0.91995315  0.32145989    -0.10820
H88         H  0.80290680  0.01753972  0.31730314     0.08870
H89         H  0.89901793  0.94903286  0.35620831     0.06400
H90         H  0.79305018  0.89428714  0.31894921     0.06240
O91         O  0.33403032  0.50686994  0.04918028    -0.79980
O92         O  0.11320351  0.51181742  0.05832403    -0.81530
O93         O  0.23543436  0.58075564  0.05149955    -0.78550
O94         O  0.22406838  0.48850704  0.13511817    -0.76940
O95         O  0.22221532  0.42298905  0.13002753    -0.78730
O96         O  0.23583829  0.58230336  0.98572440    -0.79660
O97         O  0.16372128  0.54097320  0.09116696    -0.80990
O98         O  0.28891941  0.53501754  0.08964160    -0.81280
Eu99       Eu  0.22498926  0.51295990  0.06887675     2.39200
O100        O  0.18258785  0.45941766  0.06795357    -0.88790
O101        O  0.26261182  0.51418665  0.01223942    -0.92390
C102        C  0.32395616  0.53056237  0.07673308     1.02300
C103        C  0.12739562  0.53703796  0.08236888     1.02120
C104        C  0.24033865  0.59814057  0.01931027     1.02060
C105        C  0.22207202  0.45465597  0.14982198     0.99920
H106        H  0.16818052  0.54015798  0.01637239     0.29670
O107        O  0.18281525  0.51642109  0.01544200    -1.01170
H108        H  0.28251426  0.45648958  0.08573320     0.29700
O109        O  0.26521284  0.45801208  0.06390087    -1.03710
O110        O  0.10199266  0.42249139  0.96777000    -0.80940
O111        O  0.32827344  0.41655839  0.95481401    -0.80480
O112        O  0.16012365  0.54408128  0.94104885    -0.78920
O113        O  0.16201503  0.37783776  0.08336498    -0.82260
O114        O  0.28625467  0.37775110  0.07848804    -0.80110
O115        O  0.28233130  0.53929313  0.93135773    -0.78760
O116        O  0.21129748  0.43175101  0.88671780    -0.80280
O117        O  0.22803928  0.34014997  0.97222098    -0.82200
O118        O  0.21131024  0.49757354  0.89180422    -0.78940
O119        O  0.22920955  0.33910647  0.03813289    -0.81620
O120        O  0.11200509  0.50563003  0.96594480    -0.77350
O121        O  0.33092338  0.50417710  0.95907247    -0.77390
O122        O  0.33298838  0.40765367  0.04216781    -0.77030
O123        O  0.11176924  0.41064176  0.05522976    -0.80530
O124        O  0.14601416  0.38949822  0.92994557    -0.79950
O125        O  0.27862553  0.38471160  0.92322331    -0.78280
Eu126      Eu  0.14060734  0.46186878  0.01406518     2.39770
Eu127      Eu  0.30122549  0.45925525  0.00547422     2.39570
Eu128      Eu  0.22139283  0.51718512  0.95940908     2.38400
Eu129      Eu  0.22280400  0.40490191  0.06166835     2.39880
Eu130      Eu  0.21537776  0.40649330  0.95139014     2.39790
O131        O  0.25794643  0.40693543  0.00423116    -0.92700
O132        O  0.17952196  0.46343664  0.95840123    -0.91590
C133        C  0.11024111  0.39914186  0.93951814     1.02470
C134        C  0.31524867  0.39250211  0.92911467     1.01190
C135        C  0.12451639  0.53289066  0.94403058     1.00580
C136        C  0.12567126  0.38375433  0.07675143     1.02600
C137        C  0.32169261  0.38203157  0.06648152     1.01510
C138        C  0.31840074  0.53018123  0.93591794     1.00360
C139        C  0.20856324  0.46560911  0.87253833     1.00420
C140        C  0.23338433  0.32338547  0.00469315     1.03030
H141        H  0.27255649  0.46160237  0.92871001     0.30410
O142        O  0.25800306  0.46068609  0.95254728    -1.04860
H143        H  0.16312707  0.38241927  0.00815530     0.32460
O144        O  0.17916360  0.40533882  0.00887772    -1.07420
C145        C  0.15929015  0.46122298  0.71459423     0.03280
C146        C  0.15552141  0.42556432  0.69479216    -0.12870
C147        C  0.13878888  0.42404082  0.65789503     0.00780
C148        C  0.12555096  0.45786467  0.64151091    -0.11390
C149        C  0.12758092  0.49276076  0.66136480     0.03270
C150        C  0.14556452  0.49487091  0.69720910    -0.10820
H151        H  0.16399157  0.39909735  0.70848090     0.08870
H152        H  0.11092974  0.45678314  0.61386500     0.06400
H153        H  0.14732794  0.52243878  0.71209905     0.06240
C154        C  0.18547334  0.45220744  0.31258233     0.03280
C155        C  0.17597537  0.41819751  0.33258474    -0.12870
C156        C  0.15700193  0.42041494  0.36845383     0.00780
C157        C  0.15209417  0.45623567  0.38640841    -0.11390
C158        C  0.15754125  0.48981578  0.36583031     0.03270
C159        C  0.17478970  0.48803494  0.32923758    -0.10820
H160        H  0.18048265  0.39019749  0.31924350     0.08870
H161        H  0.13731359  0.45793161  0.41409361     0.06400
H162        H  0.17663859  0.51408231  0.31261909     0.06240
C163        C  0.31621519  0.18104363  0.01457094     0.03280
C164        C  0.33088982  0.16709538  0.04957419    -0.12870
C165        C  0.35494904  0.13428636  0.04921959     0.00780
C166        C  0.36228876  0.11503788  0.01448653    -0.11390
C167        C  0.34887198  0.12930667  0.97989704     0.03270
C168        C  0.32550932  0.16212530  0.97972970    -0.10820
H169        H  0.32494574  0.18239093  0.07634988     0.08870
H170        H  0.37979875  0.08899768  0.01410660     0.06400
H171        H  0.31559158  0.17356644  0.95263335     0.06240
C172        C  0.30465667  0.75261125  0.01972566     0.03280
C173        C  0.31452327  0.77227440  0.05425164    -0.12870
C174        C  0.33405264  0.80790352  0.05284022     0.00780
C175        C  0.34178430  0.82443614  0.01743852    -0.11390
C176        C  0.33503900  0.80433074  0.98316806     0.03270
C177        C  0.31580068  0.76853850  0.98409809    -0.10820
H178        H  0.30921024  0.75890930  0.08173454     0.08870
H179        H  0.35709568  0.85184811  0.01666670     0.06400
H180        H  0.31101235  0.75247618  0.95756763     0.06240
O181        O  0.06114838  0.14417125  0.42821687    -0.79980
O182        O  0.89954550  0.15180084  0.58174556    -0.81530
O183        O  0.02515716  0.10082921  0.55648528    -0.78550
O184        O  0.94096473  0.10032942  0.45952762    -0.76940
O185        O  0.90925799  0.14595526  0.42469838    -0.78730
O186        O  0.05887114  0.14817530  0.58901477    -0.79660
O187        O  0.92956498  0.10393835  0.54651897    -0.80990
O188        O  0.03060310  0.09903554  0.46513891    -0.81280
Eu189      Eu  0.98284503  0.13153030  0.50827171     2.39200
O190        O  0.92803442  0.17201319  0.50767557    -0.88790
O191        O  0.03919555  0.16975163  0.50836312    -0.92390
C192        C  0.05462839  0.10928400  0.43825382     1.02300
C193        C  0.90355999  0.11644145  0.57069309     1.02120
C194        C  0.05015044  0.11275993  0.58191099     1.02060
C195        C  0.91773030  0.11072646  0.43235120     0.99920
H196        H  0.98020137  0.15637534  0.58740358     0.29670
O197        O  0.98158364  0.17139214  0.56428763    -1.01170
H198        H  0.98464435  0.15288384  0.42922625     0.29700
O199        O  0.98413501  0.16883691  0.45220201    -1.03710
O200        O  0.91875672  0.27657007  0.59479583    -0.80940
O201        O  0.07084912  0.26629248  0.43150707    -0.80480
O202        O  0.01264052  0.22485799  0.62946283    -0.78920
O203        O  0.86092791  0.20164726  0.47633005    -0.82260
O204        O  0.95121395  0.21442643  0.38486800    -0.80110
O205        O  0.10722274  0.20176790  0.54249831    -0.78760
O206        O  0.03687295  0.31850633  0.54710103    -0.80280
O207        O  0.93781816  0.31795376  0.45975425    -0.82200
O208        O  0.06515241  0.27123207  0.58305454    -0.78940
O209        O  0.90277239  0.26933942  0.43056607    -0.81620
O210        O  0.94617693  0.21821421  0.62870175    -0.77350
O211        O  0.10768453  0.19838797  0.47675378    -0.77390
O212        O  0.01811460  0.21390727  0.38534179    -0.77030
O213        O  0.85919570  0.21405331  0.54110140    -0.80530
O214        O  0.95619124  0.31999211  0.56216464    -0.79950
O215        O  0.03534133  0.31489296  0.45974532    -0.78280
Eu216      Eu  0.92732671  0.21339293  0.56166008     2.39770
Eu217      Eu  0.04073745  0.20685320  0.45244762     2.39570
Eu218      Eu  0.03859462  0.20967704  0.56341404     2.38400
Eu219      Eu  0.92857759  0.20873870  0.45203011     2.39880
Eu220      Eu  0.98641117  0.28862177  0.50486841     2.39790
O221        O  0.98560127  0.24685566  0.45128654    -0.92700
O222        O  0.98438881  0.24938397  0.55859356    -0.91590
C223        C  0.93521804  0.30993651  0.59148853     1.02470
C224        C  0.06303348  0.30204748  0.43749983     1.01190
C225        C  0.97844969  0.22655846  0.64586869     1.00580
C226        C  0.84275739  0.20516963  0.50890606     1.02600
C227        C  0.98485527  0.21675104  0.36790235     1.01510
C228        C  0.12475911  0.19696210  0.50977819     1.00360
C229        C  0.06064976  0.30638809  0.57320715     1.00420
C230        C  0.91087804  0.30505807  0.43643522     1.03030
H231        H  0.06530876  0.26161644  0.50706732     0.30410
O232        O  0.04117540  0.24710309  0.50713463    -1.04860
H233        H  0.90492731  0.26795982  0.50647893     0.32460
O234        O  0.92776015  0.25160491  0.50609724    -1.07420
C235        C  0.68302741  0.15163144  0.52032083     0.03280
C236        C  0.66187598  0.14566065  0.48614206    -0.12870
C237        C  0.62702018  0.12446132  0.48613693     0.00780
C238        C  0.61154211  0.11249619  0.52121025    -0.11390
C239        C  0.63037033  0.12054242  0.55596678     0.03270
C240        C  0.66685789  0.13949855  0.55557962    -0.10820
H241        H  0.67375259  0.15592093  0.45924421     0.08870
H242        H  0.58564022  0.09442838  0.52153528     0.06400
H243        H  0.68303068  0.14349243  0.58208198     0.06240
C244        C  0.28847458  0.15169585  0.51357641     0.03280
C245        C  0.30982922  0.14756115  0.47891006    -0.12870
C246        C  0.34692401  0.13051030  0.47851971     0.00780
C247        C  0.36391996  0.11966553  0.51298408    -0.11390
C248        C  0.34258891  0.12111572  0.54742577     0.03270
C249        C  0.30514032  0.13799387  0.54790027    -0.10820
H250        H  0.29687996  0.15554413  0.45180457     0.08870
H251        H  0.39222017  0.10553102  0.51218386     0.06400
H252        H  0.28789252  0.13750206  0.57409417     0.06240
C253        C  0.98340749  0.26802239  0.20896800     0.03280
C254        C  0.01691978  0.26722015  0.18485374    -0.12870
C255        C  0.01678969  0.28590677  0.14926815     0.00780
C256        C  0.98220357  0.30213466  0.13635295    -0.11390
C257        C  0.94974416  0.30570480  0.16023856     0.03270
C258        C  0.94968388  0.28784178  0.19629833    -0.10820
H259        H  0.04371233  0.25385298  0.19433250     0.08870
H260        H  0.98193992  0.31693888  0.10910985     0.06400
H261        H  0.92455686  0.29128349  0.21513394     0.06240
C262        C  0.95013577  0.31526297  0.78673643     0.03280
C263        C  0.91267052  0.33192939  0.79230125    -0.12870
C264        C  0.90333720  0.35275448  0.82608218     0.00780
C265        C  0.93336844  0.35785309  0.85413494    -0.11390
C266        C  0.97293642  0.34662583  0.84694073     0.03270
C267        C  0.97978431  0.32356312  0.81388044    -0.10820
H268        H  0.89028620  0.32829717  0.77063398     0.08870
H269        H  0.92568971  0.37127468  0.88103241     0.06400
H270        H  0.00847472  0.31102591  0.80987334     0.06240
O271        O  0.03248667  0.81019090  0.45688805    -0.79980
O272        O  0.03159304  0.59296216  0.45721762    -0.81530
O273        O  0.10711621  0.71263327  0.46545871    -0.78550
O274        O  0.01547334  0.69887437  0.37917364    -0.76940
O275        O  0.94859780  0.69607395  0.38145576    -0.78730
O276        O  0.10961286  0.71116044  0.53104243    -0.79660
O277        O  0.06642929  0.64011669  0.42664385    -0.80990
O278        O  0.06068246  0.76260717  0.41972232    -0.81280
Eu279      Eu  0.03899272  0.70183842  0.44564938     2.39200
O280        O  0.98332069  0.66175400  0.44651553    -0.88790
O281        O  0.04041512  0.74283192  0.49975688    -0.92390
C282        C  0.05570470  0.79799076  0.42977665     1.02300
C283        C  0.05886922  0.60477302  0.43415251     1.02120
C284        C  0.12554553  0.71559649  0.49767408     1.02060
C285        C  0.98155742  0.69641904  0.36317846     0.99920
H286        H  0.06465102  0.64791749  0.50064950     0.29670
O287        O  0.04110002  0.66324258  0.50048512    -1.01170
H288        H  0.98284182  0.75589421  0.42401884     0.29700
O289        O  0.98311077  0.74075250  0.44706025    -1.03710
O290        O  0.94867655  0.59459716  0.55711088    -0.80940
O291        O  0.93824475  0.81273784  0.54745786    -0.80480
O292        O  0.06426209  0.64365614  0.57829656    -0.78920
O293        O  0.89886698  0.63935287  0.43026997    -0.82260
O294        O  0.90656084  0.76204787  0.42197298    -0.80110
O295        O  0.06437502  0.76639922  0.57878178    -0.78760
O296        O  0.95431919  0.70228578  0.62519090    -0.80280
O297        O  0.86038380  0.70897520  0.53879523    -0.82200
O298        O  0.02117656  0.69995978  0.62156419    -0.78940
O299        O  0.86136535  0.71307578  0.47317656    -0.81620
O300        O  0.02818277  0.59596688  0.54912563    -0.77350
O301        O  0.02924628  0.81300612  0.54838636    -0.77390
O302        O  0.93798389  0.81001056  0.45579647    -0.77030
O303        O  0.93348078  0.59336158  0.46170779    -0.80530
O304        O  0.91436860  0.64181967  0.58935195    -0.79950
O305        O  0.90605239  0.76623511  0.58145714    -0.78280
Eu306      Eu  0.98407820  0.62418895  0.50218386     2.39770
Eu307      Eu  0.98435306  0.78154790  0.50183961     2.39570
Eu308      Eu  0.04180510  0.70473440  0.55436319     2.38400
Eu309      Eu  0.92747263  0.70105146  0.44891000     2.39880
Eu310      Eu  0.92929206  0.70359919  0.55890772     2.39790
O311        O  0.92919814  0.74129273  0.50355484    -0.92700
O312        O  0.98576216  0.66640565  0.55485479    -0.91590
C313        C  0.92680258  0.60695371  0.58522435     1.02470
C314        C  0.91323519  0.80148491  0.57301733     1.01190
C315        C  0.05377878  0.60836860  0.57355214     1.00580
C316        C  0.90601098  0.60415218  0.43871646     1.02600
C317        C  0.91386654  0.79771736  0.42966647     1.01510
C318        C  0.05514603  0.80155832  0.57271695     1.00360
C319        C  0.98857531  0.69888920  0.64033178     1.00420
C320        C  0.84397238  0.71525819  0.50608708     1.03030
H321        H  0.98577292  0.75939047  0.58040164     0.30410
O322        O  0.98531825  0.74341502  0.55742977    -1.04860
H323        H  0.90333634  0.64689610  0.50598873     0.32460
O324        O  0.92675224  0.66243996  0.50441280    -1.07420
C325        C  0.68905439  0.78103731  0.51089835     0.03280
C326        C  0.66908222  0.79131640  0.47710595    -0.12870
C327        C  0.63583704  0.81509254  0.47912260     0.00780
C328        C  0.62282589  0.82805908  0.51514227    -0.11390
C329        C  0.64180602  0.81767679  0.54876096     0.03270
C330        C  0.67473781  0.79384257  0.54690223    -0.10820
H331        H  0.67984768  0.78121699  0.44941250     0.08870
H332        H  0.59820854  0.84764758  0.51726620     0.06400
H333        H  0.69031144  0.78720009  0.57305160     0.06240
C334        C  0.28245134  0.77912789  0.50419531     0.03280
C335        C  0.30285152  0.79209520  0.47125771    -0.12870
C336        C  0.33724094  0.81403306  0.47522461     0.00780
C337        C  0.35298182  0.82000110  0.51171756    -0.11390
C338        C  0.33225025  0.80985446  0.54456036     0.03270
C339        C  0.29714073  0.78915940  0.54101301    -0.10820
H340        H  0.29125120  0.78669644  0.44275081     0.08870
H341        H  0.38004274  0.83616737  0.51485352     0.06400
H342        H  0.28032546  0.78306390  0.56668291     0.06240
C343        C  0.98131036  0.67128335  0.19862742     0.03280
C344        C  0.01770041  0.66281183  0.18111940    -0.12870
C345        C  0.01936050  0.64739684  0.14349707     0.00780
C346        C  0.98456655  0.64258370  0.12301121    -0.11390
C347        C  0.94846224  0.64738408  0.14120913     0.03270
C348        C  0.94666505  0.66436771  0.17780863    -0.10820
H349        H  0.04433141  0.66484878  0.19785222     0.08870
H350        H  0.98505676  0.62789477  0.09525863     0.06400
H351        H  0.91834061  0.66833877  0.19139117     0.06240
C352        C  0.98616788  0.64612517  0.79745060     0.03280
C353        C  0.02021913  0.63026120  0.81394804    -0.12870
C354        C  0.01749003  0.60907345  0.84758883     0.00780
C355        C  0.98224965  0.60661592  0.86698678    -0.11390
C356        C  0.94864921  0.62398888  0.85324242     0.03270
C357        C  0.95008844  0.64246493  0.81749731    -0.10820
H358        H  0.04860781  0.63311582  0.80034905     0.08870
H359        H  0.98093936  0.58958228  0.89285906     0.06400
H360        H  0.92309070  0.65256104  0.80512819     0.06240
O361        O  0.67401508  0.54200077  0.08017380    -0.79980
O362        O  0.68470332  0.37607948  0.93360613    -0.81530
O363        O  0.63036736  0.50082547  0.95313987    -0.78550
O364        O  0.63221193  0.41776570  0.05111655    -0.76940
O365        O  0.68070164  0.38803602  0.08484116    -0.78730
O366        O  0.67727442  0.52784962  0.91455032    -0.79660
O367        O  0.63460185  0.40811933  0.96432754    -0.80990
O368        O  0.62843967  0.51018179  0.04353610    -0.81280
Eu369      Eu  0.66189490  0.46058978  0.00302634     2.39200
O370        O  0.70612235  0.40912308  0.00508641    -0.88790
O371        O  0.70125511  0.51481072  0.99945234    -0.92390
C372        C  0.63870787  0.53543731  0.06942481     1.02300
C373        C  0.64798933  0.38152332  0.94160387     1.02120
C374        C  0.64154365  0.52226180  0.92488112     1.02060
C375        C  0.64442128  0.39432661  0.07700701     0.99920
H376        H  0.68625922  0.45188522  0.92509492     0.29670
O377        O  0.70223541  0.45494742  0.94778303    -1.01170
H378        H  0.68351576  0.46548337  0.08240553     0.29700
O379        O  0.69970863  0.46496060  0.05956176    -1.03710
O380        O  0.81648328  0.42846412  0.92463266    -0.80940
O381        O  0.79506026  0.55557139  0.07851766    -0.80480
O382        O  0.76271038  0.46799700  0.88261833    -0.78920
O383        O  0.73548806  0.34538375  0.03747094    -0.82260
O384        O  0.74520488  0.43512718  0.12697924    -0.80110
O385        O  0.72548101  0.57914921  0.96414286    -0.78760
O386        O  0.84618116  0.52361016  0.96339409    -0.80280
O387        O  0.85393045  0.42607297  0.05502335    -0.82200
O388        O  0.79723135  0.54371753  0.92346571    -0.78940
O389        O  0.80520838  0.39136825  0.08395020    -0.81620
O390        O  0.73251877  0.41136760  0.88722857    -0.77350
O391        O  0.72795394  0.58488575  0.03002060    -0.77390
O392        O  0.74674581  0.50083653  0.12516525    -0.77030
O393        O  0.75408638  0.33828028  0.97461863    -0.80530
O394        O  0.86802955  0.45106249  0.95791313    -0.79950
O395        O  0.84641505  0.52165541  0.05316912    -0.78280
Eu396      Eu  0.74907925  0.40471438  0.95271321     2.39770
Eu397      Eu  0.73734154  0.52113491  0.05701967     2.39570
Eu398      Eu  0.73951991  0.51091068  0.94269215     2.38400
Eu399      Eu  0.74327130  0.41246373  0.06035700     2.39880
Eu400      Eu  0.82298827  0.47159249  0.00820892     2.39790
O401        O  0.78076143  0.46979195  0.06148353    -0.92700
O402        O  0.78322304  0.46200176  0.95379913    -0.91590
C403        C  0.85228775  0.44205462  0.92572717     1.02470
C404        C  0.83176851  0.54909683  0.07408226     1.01190
C405        C  0.75797182  0.43185939  0.87116563     1.00580
C406        C  0.74032482  0.32506305  0.00639258     1.02600
C407        C  0.74839295  0.46849983  0.14324441     1.01510
C408        C  0.72305867  0.59880797  0.99625438     1.00360
C409        C  0.83252324  0.54437759  0.93560676     1.00420
C410        C  0.84130407  0.40012064  0.07877856     1.03030
H411        H  0.78887158  0.54542501  0.00049826     0.30410
O412        O  0.77617257  0.52060200  0.00102658    -1.04860
H413        H  0.80613043  0.38906629  0.00878654     0.32460
O414        O  0.78847895  0.41071522  0.00800585    -1.07420
C415        C  0.91299607  0.46613792  0.76994867     0.03280
C416        C  0.92195285  0.43047077  0.75115948    -0.12870
C417        C  0.92297543  0.42737969  0.71051417     0.00780
C418        C  0.91722672  0.46028056  0.68885895    -0.11390
C419        C  0.91068161  0.49618508  0.70602815     0.03270
C420        C  0.90867874  0.49921940  0.74665755    -0.10820
H421        H  0.92655593  0.40503031  0.76793205     0.08870
H422        H  0.91876692  0.45797971  0.65771566     0.06400
H423        H  0.90306139  0.52705048  0.75998724     0.06240
C424        C  0.79670559  0.45476470  0.30232852     0.03280
C425        C  0.80571833  0.41784897  0.31652524    -0.12870
C426        C  0.81707497  0.41381886  0.35514094     0.00780
C427        C  0.81617748  0.44584972  0.37967971    -0.11390
C428        C  0.81595792  0.48277275  0.36449935     0.03270
C429        C  0.80364362  0.48727059  0.32624242    -0.10820
H430        H  0.80597656  0.39303888  0.29727157     0.08870
H431        H  0.82315630  0.44201406  0.40976234     0.06400
H432        H  0.80119323  0.51582191  0.31452913     0.06240
C433        C  0.66730933  0.17450932  0.00837689     0.03280
C434        C  0.65451179  0.16089136  0.04436409    -0.12870
C435        C  0.63250949  0.12697912  0.04640612     0.00780
C436        C  0.62468761  0.10586331  0.01298813    -0.11390
C437        C  0.63712497  0.11837734  0.97704609     0.03270
C438        C  0.65843585  0.15307120  0.97461035    -0.10820
H439        H  0.66038003  0.17734560  0.07045129     0.08870
H440        H  0.60690157  0.08004686  0.01495986     0.06400
H441        H  0.66696030  0.16386048  0.94673059     0.06240
C442        C  0.66916680  0.75693937  0.00549468     0.03280
C443        C  0.65985924  0.77456256  0.04140406    -0.12870
C444        C  0.64382835  0.81195344  0.04265951     0.00780
C445        C  0.63994735  0.83217720  0.00852876    -0.11390
C446        C  0.64667876  0.81453380  0.97290783     0.03270
C447        C  0.66164019  0.77698821  0.97139166    -0.10820
H448        H  0.66254478  0.75841659  0.06765454     0.08870
H449        H  0.62683025  0.86059167  0.00961161     0.06400
H450        H  0.66639026  0.76302317  0.94367942     0.06240
O451        O  0.39969674  0.03632249  0.82725519    -0.79980
O452        O  0.56178610  0.88418267  0.82598179    -0.81530
O453        O  0.43574897  0.91372888  0.87445662    -0.78550
O454        O  0.52916123  0.00547287  0.87483562    -0.76940
O455        O  0.56171515  0.03731812  0.82707752    -0.78730
O456        O  0.39862914  0.88429343  0.82765921    -0.79660
O457        O  0.53028227  0.91767190  0.87425315    -0.80990
O458        O  0.43736822  0.00868798  0.87384988    -0.81280
Eu459      Eu  0.48135549  0.96031028  0.84441155     2.39200
O460        O  0.53744477  0.95943234  0.80464241    -0.88790
O461        O  0.42425780  0.95983789  0.80565704    -0.92390
C462        C  0.41083385  0.03225712  0.86219085     1.02300
C463        C  0.55570240  0.89297744  0.86149844     1.02120
C464        C  0.40872080  0.88998788  0.86293048     1.02060
C465        C  0.55449390  0.03031726  0.86256623     0.99920
H466        H  0.48043316  0.88297831  0.82156807     0.29670
O467        O  0.48017866  0.90503447  0.80505250    -1.01170
H468        H  0.48096989  0.03653964  0.82100333     0.29700
O469        O  0.48063396  0.01393974  0.80453759    -1.03710
O470        O  0.55730859  0.87845593  0.70338549    -0.80940
O471        O  0.40484077  0.04012735  0.70346164    -0.80480
O472        O  0.44632638  0.83746904  0.77344230    -0.78920
O473        O  0.60486949  0.99077112  0.75745918    -0.82260
O474        O  0.51380632  0.08187834  0.77192421    -0.80110
O475        O  0.35681981  0.92612996  0.75800291    -0.78760
O476        O  0.43399743  0.91353192  0.65688333    -0.80280
O477        O  0.52599716  0.00679998  0.65711440    -0.82200
O478        O  0.40433223  0.87768846  0.70367447    -0.78940
O479        O  0.55909797  0.03912991  0.70495998    -0.81620
O480        O  0.51321404  0.83635395  0.77131507    -0.77350
O481        O  0.35579533  0.99197962  0.75873976    -0.77390
O482        O  0.44681044  0.08085248  0.77309578    -0.77030
O483        O  0.60293246  0.92496096  0.75744061    -0.80530
O484        O  0.52971186  0.91543619  0.65668504    -0.79950
O485        O  0.43648979  0.00513704  0.65663289    -0.78280
Eu486      Eu  0.53515635  0.90381107  0.76497289     2.39770
Eu487      Eu  0.42440612  0.01395420  0.76550127     2.39570
Eu488      Eu  0.42456864  0.90442267  0.76570775     2.38400
Eu489      Eu  0.53680073  0.01432580  0.76576623     2.39880
Eu490      Eu  0.48102774  0.95906721  0.68683732     2.39790
O491        O  0.48083904  0.01477080  0.72642372    -0.92700
O492        O  0.47990080  0.90321633  0.72510952    -0.91590
C493        C  0.55318495  0.88890991  0.66837172     1.02470
C494        C  0.41246048  0.03172682  0.66796447     1.01190
C495        C  0.47953418  0.81992597  0.77561623     1.00580
C496        C  0.62098374  0.95725317  0.75337343     1.02600
C497        C  0.48005849  0.09845507  0.77559247     1.01510
C498        C  0.33913466  0.95870834  0.75489744     1.00360
C499        C  0.41021678  0.88697055  0.66842108     1.00420
C500        C  0.55108077  0.03210592  0.66952674     1.03030
H501        H  0.40269189  0.95868309  0.70950822     0.30410
O502        O  0.42519403  0.95875077  0.72619675    -1.04860
H503        H  0.55828266  0.95885435  0.70976847     0.32460
O504        O  0.53572974  0.95886408  0.72654987    -1.07420
C505        C  0.47945353  0.66346682  0.83303105     0.03280
C506        C  0.44383686  0.64463154  0.84175275    -0.12870
C507        C  0.44373916  0.60977182  0.86155722     0.00780
C508        C  0.47930991  0.59406221  0.87273476    -0.11390
C509        C  0.51511873  0.60931649  0.86085179     0.03270
C510        C  0.51517110  0.64466302  0.84132993    -0.10820
H511        H  0.41621105  0.65712761  0.83336330     0.08870
H512        H  0.47904942  0.56936673  0.89136417     0.06400
H513        H  0.54266977  0.65778418  0.83324201     0.06240
C514        C  0.48053146  0.25596122  0.83387624     0.03280
C515        C  0.44605190  0.27783094  0.83934864    -0.12870
C516        C  0.44657893  0.31266129  0.86062902     0.00780
C517        C  0.48240194  0.32563998  0.87575745    -0.11390
C518        C  0.51716380  0.30490162  0.86992870     0.03270
C519        C  0.51620327  0.27035170  0.84852696    -0.10820
H520        H  0.41867009  0.26739750  0.82751877     0.08870
H521        H  0.48324133  0.35145272  0.89359213     0.06400
H522        H  0.54277377  0.25359976  0.84536190     0.06240
C523        C  0.18285455  0.95677720  0.69033798     0.03280
C524        C  0.16480873  0.99184524  0.68047092    -0.12870
C525        C  0.12941030  0.99174996  0.65985561     0.00780
C526        C  0.11262160  0.95663102  0.64899435    -0.11390
C527        C  0.12923867  0.92175046  0.65925048     0.03270
C528        C  0.16411274  0.92178021  0.68029318    -0.10820
H529        H  0.17871803  0.01898594  0.68781445     0.08870
H530        H  0.08705184  0.95637970  0.63060625     0.06400
H531        H  0.17677651  0.89452067  0.68827377     0.06240
C532        C  0.77126114  0.95753484  0.67626238     0.03280
C533        C  0.78302692  0.99238120  0.65938639    -0.12870
C534        C  0.81545894  0.99334428  0.63465356     0.00780
C535        C  0.83587761  0.95949545  0.62637475    -0.11390
C536        C  0.82496517  0.92456745  0.64256862     0.03270
C537        C  0.79270261  0.92363562  0.66774212    -0.10820
H538        H  0.76635481  0.01848017  0.66424464     0.08870
H539        H  0.86064051  0.96040778  0.60678622     0.06400
H540        H  0.78447976  0.89665494  0.68072187     0.06240
C541        C  0.45103087  0.76768657  0.81495713    -0.21150
C542        C  0.47866548  0.77902521  0.78733832    -0.09200
C543        C  0.50667791  0.75207319  0.77445301     0.29660
C544        C  0.50648679  0.71441958  0.78869919    -0.21150
C545        C  0.47896791  0.70313593  0.81671586    -0.09210
C546        C  0.45145600  0.73062671  0.82995324     0.29670
F547        F  0.42610117  0.72253052  0.85891362    -0.19730
H548        H  0.42997225  0.78822366  0.82636795     0.18030
H549        H  0.52792726  0.69408948  0.77774724     0.18040
F550        F  0.53398532  0.76199644  0.74790681    -0.19720
C551        C  0.44926210  0.15283460  0.81192012    -0.21150
C552        C  0.47894107  0.13988634  0.78676183    -0.09200
C553        C  0.50837131  0.16594619  0.77576138     0.29660
C554        C  0.50812654  0.20397007  0.79010724    -0.21150
C555        C  0.47885225  0.21662541  0.81601019    -0.09210
C556        C  0.44933188  0.19045902  0.82670058     0.29670
F557        F  0.42180049  0.20037510  0.85331899    -0.19730
H558        H  0.42680051  0.13316707  0.82172567     0.18030
H559        H  0.53113080  0.22347311  0.78128054     0.18040
F560        F  0.53730898  0.15472147  0.75120634    -0.19720
C561        C  0.28780353  0.92969362  0.71363426    -0.21150
C562        C  0.29796934  0.95723897  0.74183828    -0.09200
C563        C  0.26987991  0.98451966  0.75365803     0.29660
C564        C  0.23220651  0.98379385  0.73759302    -0.21150
C565        C  0.22222842  0.95648262  0.70883054    -0.09210
C566        C  0.25081245  0.92959316  0.69684714     0.29670
F567        F  0.24400074  0.90447371  0.66731511    -0.19730
H568        H  0.30933023  0.90919021  0.70305778     0.18030
H569        H  0.21088429  0.00474624  0.74753799     0.18040
F570        F  0.27875011  0.01165754  0.78075278    -0.19720
C571        C  0.68791438  0.98605244  0.74437420    -0.21150
C572        C  0.66181098  0.95521691  0.73884636    -0.09200
C573        C  0.67338335  0.92404985  0.71491368     0.29660
C574        C  0.70928375  0.92472224  0.69574517    -0.21150
C575        C  0.73500790  0.95600549  0.70022074    -0.09210
C576        C  0.72439859  0.98628947  0.72573410     0.29670
F577        F  0.74912278  0.01620960  0.73264346    -0.19730
H578        H  0.67981642  0.01028485  0.76267649     0.18030
H579        H  0.71607618  0.90131492  0.67591389     0.18040
F580        F  0.64894494  0.89394694  0.70766075    -0.19720
C581        C  0.60048562  0.81313529  0.91807358    -0.21150
C582        C  0.62946625  0.83299824  0.93897109    -0.09200
C583        C  0.63489960  0.87267815  0.93295654     0.29660
C584        C  0.61006264  0.89243404  0.90834581    -0.21150
C585        C  0.58007758  0.87275377  0.88899976    -0.09210
C586        C  0.57606888  0.83282732  0.89305139     0.29670
F587        F  0.54752219  0.81324621  0.87391841    -0.19730
H588        H  0.59522355  0.78281867  0.92283679     0.18030
H589        H  0.61421803  0.92303588  0.90431944     0.18040
F590        F  0.66325745  0.89249971  0.95209872    -0.19720
C591        C  0.60127906  0.03437517  0.91695148    -0.21150
C592        C  0.57726981  0.05296471  0.89063512    -0.09200
C593        C  0.57746156  0.09343584  0.88928413     0.29660
C594        C  0.59977805  0.11500169  0.91556293    -0.21150
C595        C  0.62264073  0.09645660  0.94307291    -0.09210
C596        C  0.62425672  0.05585333  0.94260021     0.29670
F597        F  0.64692667  0.03698724  0.96813614    -0.19730
H598        H  0.60235362  0.00322392  0.91749024     0.18030
H599        H  0.59746329  0.14609250  0.91583052     0.18040
F600        F  0.55461613  0.11205570  0.86370784    -0.19720
C601        C  0.85284991  0.47714467  0.86241609    -0.21150
C602        C  0.87260683  0.45373134  0.88858060    -0.09200
C603        C  0.91183601  0.44505974  0.87924384     0.29660
C604        C  0.92608740  0.44977467  0.84099878    -0.21150
C605        C  0.90296634  0.46758709  0.81264965    -0.09210
C606        C  0.86756172  0.48427122  0.82530035     0.29670
F607        F  0.84498482  0.50436114  0.80067687    -0.19730
H608        H  0.82532024  0.48967760  0.87035365     0.18030
H609        H  0.95495976  0.43919997  0.83348230     0.18040
F610        F  0.93612101  0.43184506  0.90679770    -0.19720
C611        C  0.78775938  0.49143117  0.19967846    -0.21150
C612        C  0.75697965  0.46873110  0.18511966    -0.09200
C613        C  0.73886542  0.44203689  0.20961992     0.29660
C614        C  0.75186935  0.43772671  0.24753550    -0.21150
C615        C  0.78328177  0.45976658  0.26187325    -0.09210
C616        C  0.80105241  0.48685173  0.23747922     0.29670
F617        F  0.83264700  0.50747763  0.24944196    -0.19730
H618        H  0.80293630  0.51133466  0.18109690     0.18030
H619        H  0.73738227  0.41704955  0.26578047     0.18040
F620        F  0.70868012  0.41991020  0.19676385    -0.19720
C621        C  0.58766502  0.32617686  0.86746739    -0.21150
C622        C  0.55355406  0.31868976  0.88892106    -0.09200
C623        C  0.55310883  0.32770873  0.92847273     0.29660
C624        C  0.58494593  0.34628325  0.94555560    -0.21150
C625        C  0.61814456  0.35603291  0.92380294    -0.09210
C626        C  0.61986316  0.34475531  0.88475796     0.29670
F627        F  0.65129185  0.35413153  0.86276883    -0.19730
H628        H  0.58855963  0.31945198  0.83695425     0.18030
H629        H  0.58317605  0.35412811  0.97580374     0.18040
F630        F  0.52129438  0.31949927  0.95044560    -0.19720
C631        C  0.72318823  0.21761253  0.98817236    -0.21150
C632        C  0.68659531  0.21279821  0.00636353    -0.09200
C633        C  0.66836122  0.24498903  0.02347949     0.29660
C634        C  0.68678362  0.28077803  0.02341636    -0.21150
C635        C  0.72385503  0.28561697  0.00657663    -0.09210
C636        C  0.74173813  0.25387189  0.98813685     0.29670
F637        F  0.77717626  0.25774190  0.97082848    -0.19730
H638        H  0.73759250  0.19319688  0.97456939     0.18030
H639        H  0.67136741  0.30530789  0.03553656     0.18040
F640        F  0.63211178  0.24207526  0.03939965    -0.19720
C641        C  0.54934994  0.54665200  0.87127551    -0.21150
C642        C  0.55114208  0.58733586  0.87074764    -0.09200
C643        C  0.58542399  0.60556593  0.88406985     0.29660
C644        C  0.61582353  0.58357200  0.89922693    -0.21150
C645        C  0.61163512  0.54364652  0.90369734    -0.09210
C646        C  0.57855796  0.52515302  0.88877559     0.29670
F647        F  0.57449327  0.48638845  0.89113199    -0.19730
H648        H  0.52420951  0.53141241  0.85973204     0.18030
H649        H  0.64202019  0.59794482  0.90916303     0.18040
F650        F  0.58871229  0.64448641  0.88499238    -0.19720
C651        C  0.67721887  0.65099922  0.97719835    -0.21150
C652        C  0.71189632  0.64007115  0.99541947    -0.09200
C653        C  0.73219899  0.66780131  0.01767229     0.29660
C654        C  0.71805991  0.70562088  0.02130776    -0.21150
C655        C  0.68343035  0.71651117  0.00281498    -0.09210
C656        C  0.66311193  0.68874666  0.98064144     0.29670
F657        F  0.62872666  0.69774533  0.96355524    -0.19730
H658        H  0.65997734  0.62977247  0.96191745     0.18030
H659        H  0.73430920  0.72652319  0.03832998     0.18040
F660        F  0.76571530  0.65824669  0.03594047    -0.19720
C661        C  0.88737955  0.59149128  0.93526375    -0.21150
C662        C  0.85843962  0.57108986  0.91529480    -0.09200
C663        C  0.85326428  0.57766301  0.87561874     0.29660
C664        C  0.88063052  0.59921842  0.85535984    -0.21150
C665        C  0.91219373  0.61614767  0.87471747    -0.09210
C666        C  0.91315958  0.61516441  0.91534405     0.29670
F667        F  0.94172495  0.63391402  0.93526935    -0.19730
H668        H  0.89035526  0.58868744  0.96610458     0.18030
H669        H  0.87885795  0.59989299  0.82428215     0.18040
F670        F  0.82321053  0.56133337  0.85580896    -0.19720
C671        C  0.87989041  0.63812349  0.11713812    -0.21150
C672        C  0.91616836  0.62285545  0.12745876    -0.09200
C673        C  0.92282076  0.58301453  0.12349212     0.29660
C674        C  0.89486572  0.55934834  0.10664163    -0.21150
C675        C  0.85930738  0.57462044  0.09438191    -0.09210
C676        C  0.85131435  0.61402711  0.10083645     0.29670
F677        F  0.81675405  0.62949159  0.08992889    -0.19730
H678        H  0.87423075  0.66863935  0.12063281     0.18030
H679        H  0.90114731  0.52894622  0.10300378     0.18040
F680        F  0.95687009  0.56704365  0.13540595    -0.19720
C681        C  0.34547709  0.86838519  0.58306377    -0.21150
C682        C  0.34492506  0.82799419  0.58096079    -0.09200
C683        C  0.36354149  0.80680925  0.60959433     0.29660
C684        C  0.38403479  0.82611920  0.63897461    -0.21150
C685        C  0.38685755  0.86651765  0.63923343    -0.09210
C686        C  0.36654270  0.88753924  0.61168252     0.29670
F687        F  0.36739199  0.92660787  0.61225362    -0.19730
H688        H  0.33132324  0.88508430  0.56104834     0.18030
H689        H  0.39919440  0.80958114  0.66044193     0.18040
F690        F  0.36404685  0.76777544  0.60768804    -0.19720
C691        C  0.62630028  0.87480803  0.58864855    -0.21150
C692        C  0.62700705  0.83454002  0.58488058    -0.09200
C693        C  0.60544420  0.81200887  0.61057262     0.29660
C694        C  0.58175095  0.82984980  0.63842833    -0.21150
C695        C  0.57880243  0.87014088  0.64007379    -0.09210
C696        C  0.60218691  0.89257321  0.61591320     0.29670
F697        F  0.60144449  0.93160245  0.61853738    -0.19730
H698        H  0.64265846  0.89246846  0.56877853     0.18030
H699        H  0.56439485  0.81229993  0.65756903     0.18040
F700        F  0.60499269  0.77307347  0.60677116    -0.19720
C701        C  0.89197545  0.53541111  0.42485704    -0.21150
C702        C  0.88107918  0.57388665  0.42097939    -0.09200
C703        C  0.84703734  0.58246541  0.39980220     0.29660
C704        C  0.82495407  0.55282140  0.38269836    -0.21150
C705        C  0.83654098  0.51425426  0.38594237    -0.09210
C706        C  0.87064037  0.50610512  0.40736157     0.29670
F707        F  0.88532879  0.47003142  0.40992243    -0.19730
H708        H  0.91809132  0.52772370  0.44052766     0.18030
H709        H  0.79902833  0.56013583  0.36658920     0.18040
F710        F  0.83508408  0.61933764  0.39528164    -0.19720
C711        C  0.00647784  0.70596148  0.25738016    -0.21150
C712        C  0.97942627  0.68030780  0.24050163    -0.09200
C713        C  0.95253678  0.66107864  0.26446000     0.29660
C714        C  0.95264251  0.66774292  0.30407796    -0.21150
C715        C  0.98026020  0.69254334  0.32094064    -0.09210
C716        C  0.00718816  0.71182542  0.29728934     0.29670
F717        F  0.03398824  0.73644268  0.31269563    -0.19730
H718        H  0.02744432  0.72108630  0.23966163     0.18030
H719        H  0.93215143  0.65205220  0.32185904     0.18040
F720        F  0.92770155  0.63392897  0.25014108    -0.19720
C721        C  0.85028726  0.82702889  0.59924501    -0.21150
C722        C  0.89095642  0.83102614  0.59433849    -0.09200
C723        C  0.90997891  0.86346533  0.60973397     0.29660
C724        C  0.88845828  0.89213485  0.62854939    -0.21150
C725        C  0.84739172  0.88971702  0.63113445    -0.09210
C726        C  0.82845912  0.85637825  0.61709496     0.29670
F727        F  0.78883847  0.85333945  0.61809108    -0.19730
H728        H  0.83521133  0.80201366  0.58755472     0.18030
H729        H  0.90377968  0.91726432  0.63963069     0.18040
F730        F  0.94933040  0.86759957  0.60627525    -0.19720
C731        C  0.77465716  0.71429631  0.53068014    -0.21150
C732        C  0.80326822  0.72934016  0.50598239    -0.09200
C733        C  0.79359183  0.76041277  0.48235454     0.29660
C734        C  0.75611380  0.77609033  0.48348209    -0.21150
C735        C  0.72743120  0.76135103  0.50820581    -0.09210
C736        C  0.73682904  0.72998244  0.53162298     0.29670
F737        F  0.70943572  0.71445817  0.55516839    -0.19730
H738        H  0.78162374  0.69049662  0.54917829     0.18030
H739        H  0.74988912  0.80081051  0.46592253     0.18040
F740        F  0.82107180  0.77718722  0.45973082    -0.19720
C741        C  0.05238407  0.85414993  0.62095318    -0.21150
C742        C  0.07483295  0.83040414  0.59676854    -0.09200
C743        C  0.11588903  0.83267651  0.59787169     0.29660
C744        C  0.13408022  0.86075640  0.62087665    -0.21150
C745        C  0.11142431  0.88617419  0.64346401    -0.09210
C746        C  0.07046182  0.88150130  0.64458258     0.29670
F747        F  0.04786299  0.90454570  0.66740484    -0.19730
H748        H  0.02082795  0.85138449  0.62157198     0.18030
H749        H  0.16559352  0.86407045  0.61936729     0.18040
F750        F  0.13815137  0.80905024  0.57532353    -0.19720
C751        C  0.19370999  0.71530805  0.52432903    -0.21150
C752        C  0.16716156  0.72769074  0.49641965    -0.09200
C753        C  0.17965206  0.75508024  0.46957965     0.29660
C754        C  0.21722051  0.77093442  0.47183597    -0.21150
C755        C  0.24368359  0.75938315  0.50031938    -0.09210
C756        C  0.23176782  0.73045533  0.52596117     0.29670
F757        F  0.25680347  0.71674347  0.55265394    -0.19730
H758        H  0.18484076  0.69407745  0.54514057     0.18030
H759        H  0.22487536  0.79354933  0.45209735     0.18040
F760        F  0.15470818  0.76857251  0.44266540    -0.19720
C761        C  0.88797160  0.55443585  0.61730404    -0.21150
C762        C  0.91914143  0.58069783  0.61760575    -0.09200
C763        C  0.94401413  0.58219618  0.64971369     0.29660
C764        C  0.93868816  0.55717804  0.68055069    -0.21150
C765        C  0.90866481  0.52962420  0.67971961    -0.09210
C766        C  0.88279354  0.52898883  0.64800081     0.29670
F767        F  0.85366922  0.50239347  0.64589837    -0.19730
H768        H  0.86833877  0.55295676  0.59294450     0.18030
H769        H  0.95971876  0.55752621  0.70379666     0.18040
F770        F  0.97502507  0.60648262  0.65004757    -0.19720
C771        C  0.96324187  0.70486779  0.70800516    -0.21150
C772        C  0.99070370  0.68994799  0.68165140    -0.09200
C773        C  0.01801296  0.66275322  0.69421620     0.29660
C774        C  0.01592630  0.64874489  0.73143603    -0.21150
C775        C  0.98825737  0.66309407  0.75816310    -0.09210
C776        C  0.96260504  0.69241810  0.74618147     0.29670
F777        F  0.93716061  0.70947974  0.77114027    -0.19730
H778        H  0.94225577  0.72621294  0.69900188     0.18030
H779        H  0.03541494  0.62546431  0.73858529     0.18040
F780        F  0.04471875  0.64704358  0.66955833    -0.19720
C781        C  0.84438865  0.39506219  0.80690345    -0.21150
C782        C  0.86219007  0.36865917  0.83225686    -0.09200
C783        C  0.83977067  0.35729762  0.86394939     0.29660
C784        C  0.80341212  0.37462022  0.87199663    -0.21150
C785        C  0.79031990  0.40764344  0.85211470    -0.09210
C786        C  0.80946591  0.41526248  0.81718143     0.29670
F787        F  0.79509694  0.44241240  0.79351371    -0.19730
H788        H  0.85827623  0.40157483  0.77995956     0.18030
H789        H  0.78779111  0.36502851  0.89728882     0.18040
F790        F  0.85323760  0.32968861  0.88766877    -0.19720
C791        C  0.93027371  0.36956514  0.13560620    -0.21150
C792        C  0.91905922  0.33236983  0.14724946    -0.09200
C793        C  0.88176273  0.31869797  0.13792131     0.29660
C794        C  0.85689949  0.34113321  0.11575296    -0.21150
C795        C  0.86887825  0.37750534  0.10214942    -0.09210
C796        C  0.90569188  0.39179685  0.11288928     0.29670
F797        F  0.91806213  0.42692209  0.10131045    -0.19730
H798        H  0.95925029  0.38044350  0.14233840     0.18030
H799        H  0.82854957  0.32931391  0.10813192     0.18040
F800        F  0.87048374  0.28268833  0.14782301    -0.19720
C801        C  0.37741912  0.09121222  0.64641430    -0.21150
C802        C  0.39227440  0.05414258  0.63806212    -0.09200
C803        C  0.38799825  0.03887675  0.60063812     0.29660
C804        C  0.37037854  0.06050887  0.57223413    -0.21150
C805        C  0.35719322  0.09814995  0.57994082    -0.09210
C806        C  0.36009520  0.11317757  0.61754759     0.29670
F807        F  0.34776434  0.14945582  0.62596832    -0.19730
H808        H  0.38022236  0.10364792  0.67502966     0.18030
H809        H  0.36751754  0.04787493  0.54368791     0.18040
F810        F  0.40068506  0.00292481  0.59127641    -0.19720
C811        C  0.55210486  0.08472788  0.62260151    -0.21150
C812        C  0.57214140  0.05575986  0.64174567    -0.09200
C813        C  0.61296307  0.05251151  0.63739583     0.29660
C814        C  0.63300560  0.07625534  0.61171917    -0.21150
C815        C  0.61257571  0.10396212  0.59085529    -0.09210
C816        C  0.57216748  0.10901416  0.59772025     0.29670
F817        F  0.55179214  0.13627776  0.57872934    -0.19730
H818        H  0.52090525  0.08852121  0.62697316     0.18030
H819        H  0.66392958  0.07153671  0.60650419     0.18040
F820        F  0.63306562  0.02539757  0.65685933    -0.19720
C821        C  0.84724091  0.32385462  0.40663843    -0.21150
C822        C  0.88702923  0.33222785  0.41406067    -0.09200
C823        C  0.90401857  0.36459918  0.39717136     0.29660
C824        C  0.88145387  0.38840856  0.37407441    -0.21150
C825        C  0.84119484  0.38143732  0.36860328    -0.09210
C826        C  0.82428042  0.34859898  0.38462845     0.29670
F827        F  0.78543436  0.34145212  0.38048011    -0.19730
H828        H  0.83361051  0.29866453  0.41893104     0.18030
H829        H  0.89494565  0.41377040  0.36200035     0.18040
F830        F  0.94241086  0.37309210  0.40273190    -0.19720
C831        C  0.95235265  0.23261473  0.26421600    -0.21150
C832        C  0.98493962  0.25192116  0.24871216    -0.09200
C833        C  0.01822852  0.25705224  0.27221165     0.29660
C834        C  0.01847523  0.24375380  0.31002336    -0.21150
C835        C  0.98546422  0.22565136  0.32597737    -0.09210
C836        C  0.95244514  0.21971552  0.30232201     0.29670
F837        F  0.92006272  0.20170011  0.31598053    -0.19730
H838        H  0.92649596  0.22779158  0.24685710     0.18030
H839        H  0.04411244  0.24939570  0.32747742     0.18040
F840        F  0.04984967  0.27707384  0.25972801    -0.19720
C841        C  0.11161396  0.08404204  0.60632487    -0.21150
C842        C  0.07052629  0.08402587  0.60479813    -0.09200
C843        C  0.04928188  0.05687964  0.62566516     0.29660
C844        C  0.06899460  0.02925790  0.64675641    -0.21150
C845        C  0.11021506  0.02717847  0.64607256    -0.09210
C846        C  0.13147121  0.05547717  0.62634224     0.29670
F847        F  0.17111006  0.05395232  0.62397488    -0.19730
H848        H  0.12830738  0.10514343  0.59047729     0.18030
H849        H  0.05193525  0.00809938  0.66214663     0.18040
F850        F  0.00952452  0.05697581  0.62545987    -0.19720
C851        C  0.19128939  0.19962941  0.54059450    -0.21150
C852        C  0.16713809  0.18744795  0.51004683    -0.09200
C853        C  0.18339875  0.16406599  0.48068282     0.29660
C854        C  0.22255694  0.15283296  0.48221838    -0.21150
C855        C  0.24693868  0.16501601  0.51258884    -0.09210
C856        C  0.23086853  0.18887635  0.54176324     0.29670
F857        F  0.25344193  0.20230669  0.57108820    -0.19730
H858        H  0.17954852  0.21768773  0.56353058     0.18030
H859        H  0.23348056  0.13358385  0.45988066     0.18040
F860        F  0.16107084  0.15044937  0.45122712    -0.19720
C861        C  0.83883752  0.02907820  0.57788029    -0.21150
C862        C  0.82973281  0.02921158  0.61728382    -0.09200
C863        C  0.84106692  0.06076031  0.64046801     0.29660
C864        C  0.86386879  0.09020197  0.62484235    -0.21150
C865        C  0.87592626  0.08808217  0.58619893    -0.09210
C866        C  0.86193837  0.05806095  0.56246272     0.29670
F867        F  0.87119575  0.05635583  0.52448998    -0.19730
H868        H  0.82983100  0.00524915  0.55945416     0.18030
H869        H  0.87392846  0.11348270  0.64340734     0.18040
F870        F  0.83291523  0.06152771  0.67870744    -0.19720
C871        C  0.78758102  0.16446411  0.48659801    -0.21150
C872        C  0.80076952  0.19493844  0.51008076    -0.09200
C873        C  0.77491892  0.21131789  0.53746090     0.29660
C874        C  0.73656161  0.19722100  0.54105131    -0.21150
C875        C  0.72363998  0.16651449  0.51761520    -0.09210
C876        C  0.74973397  0.15005115  0.49057615     0.29670
F877        F  0.73915009  0.11887501  0.46897000    -0.19730
H878        H  0.80724329  0.15047693  0.46624721     0.18030
H879        H  0.71691131  0.21034527  0.56194704     0.18040
F880        F  0.78668858  0.24092346  0.56060299    -0.19720
C881        C  0.96229973  0.38979444  0.66307494    -0.21150
C882        C  0.92992655  0.39103149  0.68807507    -0.09200
C883        C  0.89991158  0.36360450  0.68262997     0.29660
C884        C  0.90174414  0.33677268  0.65173665    -0.21150
C885        C  0.93285372  0.33766092  0.62493018    -0.09210
C886        C  0.96373290  0.36389970  0.63189413     0.29670
F887        F  0.99539967  0.36508889  0.60826758    -0.19730
H888        H  0.98548391  0.41094882  0.66619713     0.18030
H889        H  0.87799667  0.31640240  0.64784266     0.18040
F890        F  0.86750269  0.36463833  0.70531838    -0.19720
C891        C  0.93736146  0.24226522  0.70403503    -0.21150
C892        C  0.97430256  0.24281084  0.68581074    -0.09200
C893        C  0.00429695  0.26452913  0.70334015     0.29660
C894        C  0.99627396  0.28822549  0.73551443    -0.21150
C895        C  0.95864859  0.28932205  0.75257129    -0.09210
C896        C  0.92974552  0.26453103  0.73712367     0.29670
F897        F  0.89401514  0.26128251  0.75399180    -0.19730
H898        H  0.91366916  0.22515913  0.69210873     0.18030
H899        H  0.01962358  0.30638146  0.74639505     0.18040
F900        F  0.04119070  0.26377753  0.68889381    -0.19720
C901        C  0.33150938  0.83370696  0.91785073    -0.21150
C902        C  0.35388975  0.81977909  0.94831033    -0.09200
C903        C  0.39441465  0.82737119  0.94914554     0.29660
C904        C  0.41168718  0.85059972  0.92154579    -0.21150
C905        C  0.38921920  0.86597555  0.89195694    -0.09210
C906        C  0.34911749  0.85639930  0.88951700     0.29670
F907        F  0.32663943  0.87053091  0.86092251    -0.19730
H908        H  0.30022175  0.82861363  0.91707166     0.18030
H909        H  0.44278925  0.85657911  0.92329723     0.18040
F910        F  0.41698429  0.81369080  0.97793024    -0.19720
C911        C  0.40356431  0.10836249  0.93884223    -0.21150
C912        C  0.36296721  0.11050425  0.94462482    -0.09200
C913        C  0.33766846  0.08842033  0.92150036     0.29660
C914        C  0.35324568  0.06291088  0.89401672    -0.21150
C915        C  0.39398028  0.05887040  0.89038669    -0.09210
C916        C  0.41905990  0.08253296  0.91206949     0.29670
F917        F  0.45851170  0.08057537  0.90732862    -0.19730
H918        H  0.42330236  0.12532027  0.95664398     0.18030
H919        H  0.33371724  0.04531765  0.87663847     0.18040
F920        F  0.29836257  0.08968819  0.92728938    -0.19720
C921        C  0.12526016  0.58021784  0.41793956    -0.21150
C922        C  0.08432019  0.57629847  0.41521488    -0.09200
C923        C  0.06836475  0.54637353  0.39289180     0.29660
C924        C  0.09309366  0.52032767  0.37408488    -0.21150
C925        C  0.13392507  0.52302134  0.37828846    -0.09210
C926        C  0.15003888  0.55327845  0.40009713     0.29670
F927        F  0.18932259  0.55578365  0.40536440    -0.19730
H928        H  0.13791179  0.60348297  0.43491244     0.18030
H929        H  0.08035759  0.49696788  0.35734860     0.18040
F930        F  0.02900609  0.54255241  0.38905466    -0.19720
C931        C  0.14962070  0.35194282  0.39024872    -0.21150
C932        C  0.13328403  0.38809520  0.38315927    -0.09200
C933        C  0.09329203  0.39431411  0.39138094     0.29660
C934        C  0.07095339  0.36608279  0.40876210    -0.21150
C935        C  0.08740538  0.33052287  0.41746586    -0.09210
C936        C  0.12679564  0.32312232  0.40720476     0.29670
F937        F  0.14363553  0.28874639  0.41487103    -0.19730
H938        H  0.18015411  0.34646062  0.38370408     0.18030
H939        H  0.04050215  0.37209445  0.41530406     0.18040
F940        F  0.07558314  0.42796074  0.38265783    -0.19720
C941        C  0.06833584  0.52072222  0.63331472    -0.21150
C942        C  0.10733151  0.52561694  0.64496707    -0.09200
C943        C  0.12768724  0.55925662  0.63578305     0.29660
C944        C  0.10982877  0.58663517  0.61288807    -0.21150
C945        C  0.07178697  0.58031650  0.59880104    -0.09210
C946        C  0.05069655  0.54763933  0.61009628     0.29670
F947        F  0.01323389  0.54149888  0.59853944    -0.19730
H948        H  0.05215737  0.49501332  0.64082310     0.18030
H949        H  0.12624780  0.61203266  0.60495342     0.18040
F950        F  0.16544058  0.56438021  0.64679042    -0.19720
C951        C  0.13237482  0.38526083  0.59759079    -0.21150
C952        C  0.12792385  0.38784579  0.63790822    -0.09200
C953        C  0.10375532  0.36121042  0.65656259     0.29660
C954        C  0.08231743  0.33458995  0.63491750    -0.21150
C955        C  0.08431654  0.33429637  0.59466324    -0.09210
C956        C  0.11017499  0.35908819  0.57598244     0.29670
F957        F  0.11337122  0.35843619  0.53704401    -0.19730
H958        H  0.15084778  0.40560875  0.58266429     0.18030
H959        H  0.06234130  0.31555306  0.64941407     0.18040
F960        F  0.09781944  0.36327392  0.69516917    -0.19720
C961        C  0.08562401  0.59401528  0.07462149    -0.21150
C962        C  0.10110156  0.56610448  0.09881754    -0.09200
C963        C  0.09537209  0.56942620  0.13866406     0.29660
C964        C  0.07138027  0.59852240  0.15375749    -0.21150
C965        C  0.05376651  0.62533391  0.12934830    -0.09210
C966        C  0.06272214  0.62384721  0.08973585     0.29670
F967        F  0.04773706  0.65019918  0.06543299    -0.19730
H968        H  0.09153432  0.59279206  0.04397307     0.18030
H969        H  0.06468731  0.59854404  0.18422622     0.18040
F970        F  0.11164307  0.54361254  0.16271366    -0.19720
C971        C  0.10169432  0.35062877  0.13445264    -0.21150
C972        C  0.09920702  0.35617371  0.09473725    -0.09200
C973        C  0.07633253  0.33107649  0.07227697     0.29660
C974        C  0.05388436  0.30266916  0.09000703    -0.21150
C975        C  0.05288685  0.29999261  0.13045927    -0.09210
C976        C  0.07875473  0.32291327  0.15233561     0.29670
F977        F  0.07887616  0.32155644  0.19132084    -0.19730
H978        H  0.12032558  0.36895178  0.15186976     0.18030
H979        H  0.03434693  0.28519699  0.07250829     0.18040
F980        F  0.07546197  0.33429310  0.03341928    -0.19720
C981        C  0.18521947  0.42167701  0.24669434    -0.21150
C982        C  0.19959561  0.45039015  0.27185659    -0.09200
C983        C  0.22478417  0.47877655  0.25680362     0.29660
C984        C  0.23279877  0.47979232  0.21721526    -0.21150
C985        C  0.21716920  0.45173934  0.19209883    -0.09210
C986        C  0.19437117  0.42191757  0.20756712     0.29670
F987        F  0.17888139  0.39403355  0.18454706    -0.19730
H988        H  0.16529797  0.39974378  0.25677282     0.18030
H989        H  0.25108930  0.50263194  0.20615122     0.18040
F990        F  0.24149845  0.50569412  0.28024256    -0.19720
C991        C  0.37780144  0.39320749  0.89202858    -0.21150
C992        C  0.34515251  0.37255196  0.90513734    -0.09200
C993        C  0.34348682  0.33263897  0.89798149     0.29660
C994        C  0.37576306  0.31337961  0.88168497    -0.21150
C995        C  0.40971693  0.33374607  0.87093746    -0.09210
C996        C  0.40930366  0.37427942  0.87429313     0.29670
F997        F  0.43971827  0.39568733  0.86118448    -0.19730
H998        H  0.37920029  0.42414653  0.89614981     0.18030
H999        H  0.37485661  0.28228443  0.87937604     0.18040
F1000       F  0.31179618  0.31188019  0.90894704    -0.19720
C1001       C  0.29083155  0.28334243  0.99227079    -0.21150
C1002       C  0.25161326  0.28538937  0.00407819    -0.09200
C1003       C  0.23397019  0.25347272  0.02137907     0.29660
C1004       C  0.25529203  0.21938139  0.02558313    -0.21150
C1005       C  0.29440158  0.21735467  0.01312464    -0.09210
C1006       C  0.31211133  0.24960968  0.99659725     0.29670
F1007       F  0.35025030  0.24863424  0.98540937    -0.19730
H1008       H  0.30549381  0.30856827  0.98122855     0.18030
H1009       H  0.24134909  0.19455689  0.03825062     0.18040
F1010       F  0.19644992  0.25543623  0.03424326    -0.19720
C1011       C  0.10311729  0.59119998  0.91020252    -0.21150
C1012       C  0.09726005  0.55209736  0.91846210    -0.09200
C1013       C  0.06912522  0.53078584  0.89800647     0.29660
C1014       C  0.04606566  0.54894009  0.87087495    -0.21150
C1015       C  0.05037797  0.58856823  0.86437709    -0.09210
C1016       C  0.07965766  0.60944499  0.88344399     0.29670
F1017       F  0.08350886  0.64791790  0.87833158    -0.19730
H1018       H  0.12537954  0.60782161  0.92516008     0.18030
H1019       H  0.02303613  0.53270372  0.85662261     0.18040
F1020       F  0.06427871  0.49251541  0.90387567    -0.19720
C1021       C  0.04511542  0.36555443  0.85472851    -0.21150
C1022       C  0.00790483  0.35924497  0.87192533    -0.09200
C1023       C  0.00559381  0.36537427  0.91224375     0.29660
C1024       C  0.03871685  0.37771490  0.93372831    -0.21150
C1025       C  0.07578008  0.38350298  0.91635906    -0.09210
C1026       C  0.07832347  0.37692265  0.87633468     0.29670
F1027       F  0.11261809  0.38313478  0.85753974    -0.19730
H1028       H  0.04866153  0.36244247  0.82389629     0.18030
H1029       H  0.03537365  0.38241758  0.96443063     0.18040
F1030       F  0.97173448  0.35851262  0.93146759    -0.19720
C1031       C  0.21846242  0.44340928  0.80484281    -0.21150
C1032       C  0.19916962  0.46746457  0.83154996    -0.09200
C1033       C  0.16753195  0.48988179  0.81962703     0.29660
C1034       C  0.15477284  0.48747158  0.78169465    -0.21150
C1035       C  0.17389711  0.46340205  0.75466142    -0.09210
C1036       C  0.20634497  0.44173294  0.76650154     0.29670
F1037       F  0.22656105  0.41928926  0.74108117    -0.19730
H1038       H  0.24281980  0.42579569  0.81379374     0.18030
H1039       H  0.12914366  0.50378675  0.77377005     0.18040
F1040       F  0.14742647  0.51230019  0.84518971    -0.19720
C1041       C  0.37686080  0.53003272  0.89373440    -0.21150
C1042       C  0.34733081  0.55080836  0.91259722    -0.09200
C1043       C  0.34577165  0.59106388  0.90874717     0.29660
C1044       C  0.37610321  0.61048465  0.89001103    -0.21150
C1045       C  0.40730219  0.58978794  0.87343068    -0.09210
C1046       C  0.40590566  0.54916187  0.87328993     0.29670
F1047       F  0.43353200  0.52791303  0.85450841    -0.19730
H1048       H  0.37745067  0.49890124  0.89490574     0.18030
H1049       H  0.37613580  0.64165331  0.89017305     0.18040
F1050       F  0.31605631  0.61175548  0.92467217    -0.19720
C1051       C  0.23298055  0.66935486  0.03282180    -0.21150
C1052       C  0.25595191  0.63790863  0.02071246    -0.09200
C1053       C  0.29516140  0.64429902  0.01013602     0.29660
C1054       C  0.31057904  0.68163267  0.00968510    -0.21150
C1055       C  0.28754306  0.71328316  0.02085557    -0.09210
C1056       C  0.24870602  0.70686417  0.03304985     0.29670
F1057       F  0.22585456  0.73690954  0.04435585    -0.19730
H1058       H  0.20288683  0.66489790  0.04166821     0.18030
H1059       H  0.34078422  0.68585776  0.00105269     0.18040
F1060       F  0.31887810  0.61413290  0.00125517    -0.19720
C1061       C  0.86499312  0.88992747  0.40096609    -0.21150
C1062       C  0.85986872  0.88419490  0.36119401    -0.09200
C1063       C  0.86957124  0.84849422  0.34441666     0.29660
C1064       C  0.88606633  0.81971561  0.36710892    -0.21150
C1065       C  0.89343864  0.82659222  0.40650844    -0.09210
C1066       C  0.88192058  0.86169624  0.42336831     0.29670
F1067       F  0.88713564  0.86881741  0.46151400    -0.19730
H1068       H  0.85691590  0.91705506  0.41453126     0.18030
H1069       H  0.89456776  0.79267564  0.35361232     0.18040
F1070       F  0.86495639  0.84221456  0.30608120    -0.19720
C1071       C  0.88756082  0.08742039  0.37024335    -0.21150
C1072       C  0.90035011  0.07992401  0.40792282    -0.09200
C1073       C  0.89743868  0.04226356  0.42170991     0.29660
C1074       C  0.88192563  0.01313692  0.39867384    -0.21150
C1075       C  0.86997034  0.02006815  0.36073959    -0.09210
C1076       C  0.87265867  0.05767652  0.34666952     0.29670
F1077       F  0.86185449  0.06545251  0.31009346    -0.19730
H1078       H  0.88988155  0.11612586  0.35874077     0.18030
H1079       H  0.87901936  0.98484282  0.41096206     0.18040
F1080       F  0.90913634  0.03333412  0.45772981    -0.19720
C1081       C  0.12369216  0.88052199  0.41043096    -0.21150
C1082       C  0.12286004  0.88208025  0.37008373    -0.09200
C1083       C  0.10203707  0.85403202  0.34913208     0.29660
C1084       C  0.08070220  0.82589648  0.36870478    -0.21150
C1085       C  0.07930520  0.82632340  0.40916064    -0.09210
C1086       C  0.10182690  0.85312495  0.42988939     0.29670
F1087       F  0.10248124  0.85290267  0.46893252    -0.19730
H1088       H  0.13963052  0.90209306  0.42693514     0.18030
H1089       H  0.06392959  0.80482735  0.35239791     0.18040
F1090       F  0.10038123  0.85533629  0.31018453    -0.19720
C1091       C  0.08859343  0.04633683  0.43744745    -0.21150
C1092       C  0.07681670  0.07907201  0.41765950    -0.09200
C1093       C  0.08739093  0.08298843  0.37863031     0.29660
C1094       C  0.10811538  0.05371103  0.35952784    -0.21150
C1095       C  0.11865663  0.02046544  0.37914029    -0.09210
C1096       C  0.10971177  0.01747713  0.41858147     0.29670
F1097       F  0.12109954  0.98632047  0.43879230    -0.19730
H1098       H  0.08168434  0.04321662  0.46768402     0.18030
H1099       H  0.11465687  0.05632771  0.32916595     0.18040
F1100       F  0.07631732  0.11430049  0.35853980    -0.19720
C1101       C  0.58868703  0.31325794  0.12449630    -0.21150
C1102       C  0.55195666  0.33051279  0.13058433    -0.09200
C1103       C  0.54814381  0.37036369  0.12429403     0.29660
C1104       C  0.57869192  0.39103724  0.10767088    -0.21150
C1105       C  0.61439403  0.37311387  0.09891692    -0.09210
C1106       C  0.61995872  0.33456815  0.10957994     0.29670
F1107       F  0.65486051  0.31684898  0.10375846    -0.19730
H1108       H  0.59276057  0.28285271  0.12950433     0.18030
H1109       H  0.57428206  0.42112704  0.10123985     0.18040
F1110       F  0.51450914  0.38926681  0.13335434    -0.19720
C1111       C  0.37991766  0.31875110  0.13331611    -0.21150
C1112       C  0.41105163  0.30734677  0.10930494    -0.09200
C1113       C  0.41023329  0.31732074  0.07018706     0.29660
C1114       C  0.38084935  0.34129107  0.05641732    -0.21150
C1115       C  0.35126224  0.35501500  0.08109891    -0.09210
C1116       C  0.35006719  0.34223926  0.11934421     0.29670
F1117       F  0.32159347  0.35457152  0.14391905    -0.19730
H1118       H  0.38015991  0.31174183  0.16356259     0.18030
H1119       H  0.38153736  0.34962399  0.02651948     0.18040
F1120       F  0.43910850  0.30552623  0.04578664    -0.19720
C1121       C  0.54972825  0.59801894  0.08324227    -0.21150
C1122       C  0.55177469  0.60749969  0.12269165    -0.09200
C1123       C  0.58353887  0.59447862  0.14425359     0.29660
C1124       C  0.61191029  0.57096533  0.12671635    -0.21150
C1125       C  0.60843521  0.55966242  0.08775962    -0.09210
C1126       C  0.57743747  0.57397420  0.06599000     0.29670
F1127       F  0.57412235  0.56507500  0.02797869    -0.19730
H1128       H  0.52544589  0.60800389  0.06611244     0.18030
H1129       H  0.63601773  0.56062437  0.14383758     0.18040
F1130       F  0.58588148  0.60258442  0.18249141    -0.19720
C1131       C  0.41119400  0.59662066  0.08711690    -0.21150
C1132       C  0.41044223  0.60601236  0.12666526    -0.09200
C1133       C  0.37965414  0.59215937  0.14942568     0.29660
C1134       C  0.35142714  0.56755387  0.13305731    -0.21150
C1135       C  0.35404118  0.55597395  0.09404433    -0.09210
C1136       C  0.38374280  0.57151258  0.07103731     0.29670
F1137       F  0.38613349  0.56271666  0.03291388    -0.19730
H1138       H  0.43449491  0.60738757  0.06893068     0.18030
H1139       H  0.32816568  0.55659031  0.15113846     0.18040
F1140       F  0.37813515  0.60056231  0.18765065    -0.19720
C1141       C  0.55766458  0.08357571  0.11109948    -0.21150
C1142       C  0.58134522  0.06608442  0.13847615    -0.09200
C1143       C  0.62163418  0.07475330  0.13955674     0.29660
C1144       C  0.63832883  0.09791280  0.11119708    -0.21150
C1145       C  0.61477192  0.11322234  0.08230072    -0.09210
C1146       C  0.57404822  0.10737380  0.08354806     0.29670
F1147       F  0.55049703  0.12272987  0.05643236    -0.19730
H1148       H  0.52644265  0.07841286  0.11081089     0.18030
H1149       H  0.66978656  0.10188434  0.11036198     0.18040
F1150       F  0.64509805  0.05895803  0.16645559    -0.19720
C1151       C  0.42851444  0.08218628  0.10823648    -0.21150
C1152       C  0.40504448  0.06826173  0.13801565    -0.09200
C1153       C  0.36646077  0.08215802  0.14231311     0.29660
C1154       C  0.35075054  0.10685969  0.11497620    -0.21150
C1155       C  0.37365382  0.11865546  0.08378490    -0.09210
C1156       C  0.41337727  0.10783651  0.08189188     0.29670
F1157       F  0.43691330  0.12031864  0.05303445    -0.19730
H1158       H  0.45863161  0.07305925  0.10525409     0.18030
H1159       H  0.32014576  0.11480966  0.11685749     0.18040
F1160       F  0.34331568  0.07026820  0.17166900    -0.19720
C1161       C  0.52090231  0.19377615  0.19184996    -0.21150
C1162       C  0.48721762  0.21693158  0.19437521    -0.09200
C1163       C  0.45649876  0.20514316  0.21881704     0.29660
C1164       C  0.45886314  0.17020180  0.23843002    -0.21150
C1165       C  0.49212264  0.14654833  0.23485830    -0.09210
C1166       C  0.52357969  0.15933175  0.21191408     0.29670
F1167       F  0.55605607  0.13739964  0.20656751    -0.19730
H1168       H  0.54486235  0.20149240  0.17296752     0.18030
H1169       H  0.43421883  0.16124997  0.25586654     0.18040
F1170       F  0.42415069  0.22727776  0.22391323    -0.19720
C1171       C  0.36457126  0.81678720  0.40806091    -0.21150
C1172       C  0.35489244  0.83534578  0.44289590    -0.09200
C1173       C  0.36449562  0.87459698  0.44804547     0.29660
C1174       C  0.38563274  0.89398804  0.42009240    -0.21150
C1175       C  0.39671528  0.87520767  0.38587456    -0.09210
C1176       C  0.38518741  0.83659318  0.37955133     0.29670
F1177       F  0.39509393  0.81757091  0.34654219    -0.19730
H1178       H  0.35730636  0.78671439  0.40346363     0.18030
H1179       H  0.39304649  0.92397910  0.42512437     0.18040
F1180       F  0.35349131  0.89433153  0.48033231    -0.19720
C1181       C  0.36550908  0.05789886  0.39991989    -0.21150
C1182       C  0.40322299  0.06814615  0.38795959    -0.09200
C1183       C  0.42012600  0.10254949  0.40176097     0.29660
C1184       C  0.40068801  0.12470724  0.42985676    -0.21150
C1185       C  0.36348078  0.11360653  0.44295110    -0.09210
C1186       C  0.34560567  0.08055302  0.42707228     0.29670
F1187       F  0.30998193  0.06878982  0.43984772    -0.19730
H1188       H  0.35177200  0.03195891  0.38866152     0.18030
H1189       H  0.41497459  0.14987804  0.44213332     0.18040
F1190       F  0.45535316  0.11450115  0.38823989    -0.19720
C1191       C  0.27985230  0.99055219  0.26924345    -0.21150
C1192       C  0.30787388  0.96383051  0.28116266    -0.09200
C1193       C  0.29617916  0.93402674  0.30576474     0.29660
C1194       C  0.25763175  0.93139467  0.31850647    -0.21150
C1195       C  0.22935043  0.95794629  0.30684486    -0.09210
C1196       C  0.24074729  0.98743234  0.28156148     0.29670
F1197       F  0.21413593  0.01300940  0.26851194    -0.19730
H1198       H  0.28816952  0.01361332  0.25024558     0.18030
H1199       H  0.25035633  0.90914814  0.33880593     0.18040
F1200       F  0.32248922  0.90834235  0.31929351    -0.19720
C1201       C  0.58447851  0.84042489  0.07228793    -0.21150
C1202       C  0.62354954  0.82867392  0.07683779    -0.09200
C1203       C  0.64322317  0.83875193  0.11092066     0.29660
C1204       C  0.62413061  0.86120622  0.13930857    -0.21150
C1205       C  0.58567967  0.87472828  0.13347118    -0.09210
C1206       C  0.56606213  0.86376886  0.09966992     0.29670
F1207       F  0.52893679  0.87555891  0.09291795    -0.19730
H1208       H  0.56864901  0.83288686  0.04627507     0.18030
H1209       H  0.63979003  0.86903569  0.16530948     0.18040
F1210       F  0.68119490  0.82862372  0.11588576    -0.19720
C1211       C  0.39516645  0.82695813  0.08534610    -0.21150
C1212       C  0.35401724  0.82573660  0.08613415    -0.09200
C1213       C  0.33367012  0.84858622  0.11309966     0.29660
C1214       C  0.35444432  0.87295663  0.13827464    -0.21150
C1215       C  0.39552960  0.87556907  0.13592104    -0.09210
C1216       C  0.41575279  0.85180078  0.10978084     0.29670
F1217       F  0.45542288  0.85206216  0.10840128    -0.19730
H1218       H  0.41127828  0.80981695  0.06435342     0.18030
H1219       H  0.33847399  0.89049025  0.15902938     0.18040
F1220       F  0.29394317  0.84874612  0.11375500    -0.19720
C1221       C  0.45735986  0.78011684  0.20408073    -0.21150
C1222       C  0.48690915  0.78921404  0.23079870    -0.09200
C1223       C  0.51455752  0.76083047  0.23964841     0.29660
C1224       C  0.51220705  0.72407582  0.22225292    -0.21150
C1225       C  0.48284670  0.71514269  0.19502306    -0.09210
C1226       C  0.45556415  0.74396749  0.18602291     0.29670
F1227       F  0.42842508  0.73825736  0.15809982    -0.19730
H1228       H  0.43640002  0.80177953  0.19570686     0.18030
H1229       H  0.53359785  0.70260078  0.22994011     0.18040
F1230       F  0.54360841  0.76847967  0.26517828    -0.19720
C1231       C  0.57456252  0.83453486  0.44571141    -0.21150
C1232       C  0.61551038  0.82954041  0.44454879    -0.09200
C1233       C  0.63652924  0.84332804  0.41267798     0.29660
C1234       C  0.61697806  0.86282765  0.38364214    -0.21150
C1235       C  0.57678094  0.87071216  0.38687320    -0.09210
C1236       C  0.55550184  0.85572479  0.41773834     0.29670
F1237       F  0.51628106  0.86142009  0.42075552    -0.19730
H1238       H  0.55739055  0.82331758  0.46929461     0.18030
H1239       H  0.63360800  0.87319150  0.35939444     0.18040
F1240       F  0.67611231  0.84043255  0.41069951    -0.19720
C1241       C  0.61434390  0.07425698  0.38957341    -0.21150
C1242       C  0.57408184  0.06661460  0.39042350    -0.09200
C1243       C  0.55090141  0.08234966  0.42000920     0.29660
C1244       C  0.56796168  0.10493389  0.44875291    -0.21150
C1245       C  0.60882796  0.10993015  0.45008262    -0.09210
C1246       C  0.63189482  0.09500080  0.41958063     0.29670
F1247       F  0.67152825  0.09757769  0.42004895    -0.19730
H1248       H  0.63253663  0.06217728  0.36682684     0.18030
H1249       H  0.54931647  0.11672532  0.47127225     0.18040
F1250       F  0.51189570  0.07515990  0.42162142    -0.19720
C1251       C  0.70362735  0.98123919  0.25561180    -0.21150
C1252       C  0.67457206  0.96601869  0.27969370    -0.09200
C1253       C  0.68552556  0.94844375  0.31406173     0.29660
C1254       C  0.72489714  0.94473585  0.32361143    -0.21150
C1255       C  0.75417949  0.95911828  0.29938244    -0.09210
C1256       C  0.74334538  0.97786441  0.26541321     0.29670
F1257       F  0.77113653  0.99215900  0.24151999    -0.19730
H1258       H  0.69559389  0.99511937  0.22911819     0.18030
H1259       H  0.73256366  0.93131641  0.35046742     0.18040
F1260       F  0.65786857  0.93611109  0.33911295    -0.19720
loop_ 
_geom_bond_atom_site_label_1 
_geom_bond_atom_site_label_2 
_geom_bond_distance 
_geom_bond_site_symmetry_2 
_ccdc_geom_bond_type 
O1           C12   1.290       .  A
O1          Eu37   2.455       .  S
O2           C13   1.293       .  A
O2          Eu36   2.472       .  S
O3           C14   1.285       .  A
O3           Eu9   2.428       .  S
O4           C15   1.287       .  A
O4           Eu9   2.439       .  S
O5           C15   1.290       .  A
O5          Eu39   2.449   1_545  S
O6           C14   1.296       .  A
O6          Eu38   2.479   1_545  S
O7           C13   1.294       .  A
O7           Eu9   2.474       .  S
O8           C12   1.292   1_545  A
O8           Eu9   2.471       .  S
Eu9          O19   2.351   1_545  S
Eu9          O11   2.358   1_545  S
Eu9          O10   2.354       .  S
Eu9          O17   2.343       .  S
O10         Eu39   2.357   1_545  S
O10         Eu36   2.355       .  S
O11         Eu37   2.360       .  S
O11         Eu38   2.370       .  S
C12        C1252   1.472       .  S
C13        C1165   1.491       .  S
C14        C1142   1.469       .  S
C15        C1242   1.462       .  S
H16          O17   0.963       .  S
O17         Eu38   2.329   1_545  S
O17         Eu36   2.346       .  S
H18          O19   0.966       .  S
O19         Eu37   2.362       .  S
O19         Eu39   2.353       .  S
O20          C43   1.295   1_545  A
O20         Eu36   2.489       .  S
O21          C44   1.296       .  A
O21         Eu37   2.491       .  S
O22          C45   1.297       .  A
O22         Eu38   2.484   1_545  S
O23          C46   1.295       .  A
O23         Eu39   2.485   1_545  S
O24          C47   1.295       .  A
O24         Eu39   2.473       .  S
O25          C48   1.298       .  A
O25         Eu38   2.485       .  S
O26          C49   1.283       .  A
O26         Eu40   2.416       .  S
O27          C50   1.287       .  A
O27         Eu40   2.436       .  S
O28          C49   1.298       .  A
O28         Eu38   2.494       .  S
O29          C50   1.294       .  A
O29         Eu39   2.465       .  S
O30          C45   1.285       .  A
O30         Eu36   2.420       .  S
O31          C48   1.288       .  A
O31         Eu37   2.441       .  S
O32          C47   1.287       .  A
O32         Eu37   2.436       .  S
O33          C46   1.285       .  A
O33         Eu36   2.429       .  S
O34          C43   1.286       .  A
O34         Eu40   2.427       .  S
O35          C44   1.290       .  A
O35         Eu40   2.448       .  S
Eu36         O54   2.346   1_545  S
Eu36         O42   2.357   1_545  S
Eu37         O41   2.353       .  S
Eu37         O52   2.343       .  S
Eu38         O52   2.333       .  S
Eu38         O42   2.367       .  S
Eu39         O41   2.361       .  S
Eu39         O54   2.336       .  S
Eu40         O41   2.341       .  S
Eu40         O52   2.340       .  S
Eu40         O54   2.347       .  S
Eu40         O42   2.354       .  S
C43        C1192   1.479       .  S
C44        C1222   1.486       .  S
C45        C1152   1.472       .  S
C46        C1182   1.464       .  S
C47        C1235   1.470       .  S
C48        C1205   1.482       .  S
C49        C1215   1.469       .  S
C50        C1175   1.475       .  S
H51          O52   0.964       .  S
H53          O54   0.965       .  S
C55        C1225   1.499       .  S
C55          C56   1.421       .  A
C55          C60   1.416       .  A
C56          C57   1.407       .  A
C56          H61   1.082       .  S
C57        C1132   1.481       .  S
C57          C58   1.389       .  A
C58          C59   1.389       .  A
C58          H62   1.086       .  S
C59        C1122   1.475       .  S
C59          C60   1.404       .  A
C60          H63   1.083       .  S
C64        C1162   1.498       .  S
C64          C65   1.415       .  A
C64          C69   1.414       .  A
C65          C66   1.406       .  A
C65          H70   1.082       .  S
C66        C1112   1.483       .  S
C66          C67   1.396       .  A
C67          C68   1.397       .  A
C67          H71   1.083       .  S
C68        C1102   1.489       .  S
C68          C69   1.406       .  A
C69          H72   1.083       .  S
C73        C1195   1.490       .  S
C73          C74   1.412       .  A
C73          C78   1.417       .  A
C74          C75   1.402       .  A
C74          H79   1.083   1_565  S
C75        C1095   1.473   1_565  S
C75          C76   1.391       .  A
C76          C77   1.390       .  A
C76          H80   1.086       .  S
C77        C1082   1.470       .  S
C77          C78   1.401       .  A
C78          H81   1.083       .  S
C82        C1255   1.480       .  S
C82          C83   1.409       .  A
C82          C87   1.412       .  A
C83          C84   1.405       .  A
C83          H88   1.083   1_565  S
C84        C1075   1.485   1_565  S
C84          C85   1.399       .  A
C85          C86   1.395       .  A
C85          H89   1.085       .  S
C86        C1062   1.477       .  S
C86          C87   1.402       .  A
C87          H90   1.084       .  S
O91         C102   1.299       .  A
O91        Eu127   2.496       .  S
O92         C103   1.296       .  A
O92        Eu126   2.483       .  S
O93         C104   1.290       .  A
O93         Eu99   2.466       .  S
O94         C105   1.291       .  A
O94         Eu99   2.467       .  S
O95         C105   1.289       .  A
O95        Eu129   2.449       .  S
O96         C104   1.293   1_556  A
O96        Eu128   2.477       .  S
O97         C103   1.286       .  A
O97         Eu99   2.429       .  S
O98         C102   1.285       .  A
O98         Eu99   2.422       .  S
Eu99        O109   2.358       .  S
Eu99        O101   2.348       .  S
Eu99        O100   2.355       .  S
Eu99        O107   2.360       .  S
O100       Eu129   2.349       .  S
O100       Eu126   2.367       .  S
O101       Eu127   2.331       .  S
O101       Eu128   2.323   1_554  S
C102       C1135   1.477       .  S
C103        C962   1.461       .  S
C104       C1052   1.480       .  S
C105        C985   1.484       .  S
H106        O107   0.965       .  S
O107       Eu128   2.348   1_554  S
O107       Eu126   2.379       .  S
H108        O109   0.966       .  S
O109       Eu127   2.371       .  S
O109       Eu129   2.344       .  S
O110        C133   1.295       .  A
O110       Eu126   2.479   1_556  S
O111        C134   1.294       .  A
O111       Eu127   2.463   1_556  S
O112        C135   1.280       .  A
O112       Eu128   2.387       .  S
O113        C136   1.281       .  A
O113       Eu129   2.401       .  S
O114        C137   1.288       .  A
O114       Eu129   2.442       .  S
O115        C138   1.284       .  A
O115       Eu128   2.423       .  S
O116        C139   1.286       .  A
O116       Eu130   2.431       .  S
O117        C140   1.292   1_556  A
O117       Eu130   2.467       .  S
O118        C139   1.291       .  A
O118       Eu128   2.463       .  S
O119        C140   1.284       .  A
O119       Eu129   2.426       .  S
O120        C135   1.296       .  A
O120       Eu126   2.483   1_556  S
O121        C138   1.294       .  A
O121       Eu127   2.475   1_556  S
O122        C137   1.294       .  A
O122       Eu127   2.472       .  S
O123        C136   1.298       .  A
O123       Eu126   2.499       .  S
O124        C133   1.308       .  A
O124       Eu130   2.552       .  S
O125        C134   1.296       .  A
O125       Eu130   2.483       .  S
Eu126       O144   2.371       .  S
Eu126       O132   2.344   1_554  S
Eu127       O131   2.340       .  S
Eu127       O142   2.365   1_554  S
Eu128       O142   2.338       .  S
Eu128       O132   2.350       .  S
Eu129       O131   2.328       .  S
Eu129       O144   2.370       .  S
Eu130       O131   2.348   1_556  S
Eu130       O142   2.378       .  S
Eu130       O144   2.347   1_556  S
Eu130       O132   2.338       .  S
C133       C1025   1.523       .  S
C134        C992   1.482       .  S
C135       C1012   1.460       .  S
C136        C972   1.462       .  S
C137       C1115   1.478       .  S
C138       C1042   1.468       .  S
C139       C1032   1.465       .  S
C140       C1002   1.461       .  S
H141        O142   0.966       .  S
H143        O144   0.966       .  S
C145       C1035   1.483       .  S
C145        C146   1.414       .  A
C145        C150   1.407       .  A
C146        C147   1.407       .  A
C146        H151   1.083       .  S
C147        C952   1.475       .  S
C147        C148   1.391       .  A
C148        C149   1.388       .  A
C148        H152   1.085       .  S
C149        C942   1.461       .  S
C149        C150   1.393       .  A
C150        H153   1.083       .  S
C154        C982   1.494       .  S
C154        C155   1.417       .  A
C154        C159   1.413       .  A
C155        C156   1.404       .  A
C155        H160   1.082       .  S
C156        C932   1.480       .  S
C156        C157   1.394       .  A
C157        C158   1.390       .  A
C157        H161   1.086       .  S
C158        C925   1.468       .  S
C158        C159   1.400       .  A
C159        H162   1.083       .  S
C163       C1005   1.468       .  S
C163        C164   1.411       .  A
C163        C168   1.405   1_554  A
C164        C165   1.407       .  A
C164        H169   1.083       .  S
C165       C1155   1.475       .  S
C165        C166   1.393       .  A
C166        C167   1.388   1_554  A
C166        H170   1.086       .  S
C167        C912   1.461       .  S
C167        C168   1.393       .  A
C168        H171   1.084       .  S
C172       C1055   1.486       .  S
C172        C173   1.414       .  A
C172        C177   1.415   1_554  A
C173        C174   1.406       .  A
C173        H178   1.083       .  S
C174       C1212   1.474       .  S
C174        C175   1.391       .  A
C175        C176   1.392   1_554  A
C175        H179   1.086       .  S
C176        C902   1.478       .  S
C176        C177   1.406       .  A
C177        H180   1.083       .  S
O181        C192   1.285       .  A
O181       Eu217   2.426       .  S
O182        C193   1.289       .  A
O182       Eu216   2.450       .  S
O183        C194   1.294       .  A
O183       Eu189   2.474   1_455  S
O184        C195   1.293       .  A
O184       Eu189   2.460       .  S
O185        C195   1.291       .  A
O185       Eu219   2.456       .  S
O186        C194   1.286       .  A
O186       Eu218   2.431       .  S
O187        C193   1.291       .  A
O187       Eu189   2.452       .  S
O188        C192   1.295       .  A
O188       Eu189   2.474   1_455  S
Eu189       O199   2.358       .  S
Eu189       O191   2.336   1_655  S
Eu189       O190   2.344       .  S
Eu189       O197   2.372       .  S
O190       Eu219   2.334       .  S
O190       Eu216   2.347       .  S
O191       Eu217   2.350       .  S
O191       Eu218   2.346       .  S
C192       C1092   1.471       .  S
C193        C865   1.470       .  S
C194        C842   1.465       .  S
C195       C1072   1.481       .  S
H196        O197   0.966       .  S
O197       Eu218   2.356   1_655  S
O197       Eu216   2.364       .  S
H198        O199   0.965       .  S
O199       Eu217   2.339   1_655  S
O199       Eu219   2.353       .  S
O200        C223   1.294       .  A
O200       Eu216   2.480       .  S
O201        C224   1.285       .  A
O201       Eu217   2.426       .  S
O202        C225   1.298   1_455  A
O202       Eu218   2.507       .  S
O203        C226   1.293       .  A
O203       Eu219   2.470       .  S
O204        C227   1.292       .  A
O204       Eu219   2.467       .  S
O205        C228   1.292       .  A
O205       Eu218   2.466       .  S
O206        C229   1.296       .  A
O206       Eu220   2.484   1_455  S
O207        C230   1.303       .  A
O207       Eu220   2.517       .  S
O208        C229   1.284       .  A
O208       Eu218   2.411       .  S
O209        C230   1.284       .  A
O209       Eu219   2.415       .  S
O210        C225   1.286       .  A
O210       Eu216   2.424       .  S
O211        C228   1.292       .  A
O211       Eu217   2.461       .  S
O212        C227   1.295   1_455  A
O212       Eu217   2.477       .  S
O213        C226   1.287       .  A
O213       Eu216   2.437       .  S
O214        C223   1.296       .  A
O214       Eu220   2.478       .  S
O215        C224   1.295       .  A
O215       Eu220   2.470   1_455  S
Eu216       O234   2.361       .  S
Eu216       O222   2.316       .  S
Eu217       O221   2.344   1_455  S
Eu217       O232   2.343       .  S
Eu218       O232   2.368       .  S
Eu218       O222   2.320   1_455  S
Eu219       O221   2.353       .  S
Eu219       O234   2.380       .  S
Eu220       O221   2.344       .  S
Eu220       O232   2.367   1_655  S
Eu220       O234   2.379       .  S
Eu220       O222   2.331       .  S
C223        C885   1.500       .  S
C224        C935   1.473       .  S
C225        C892   1.497       .  S
C226        C872   1.477       .  S
C227        C835   1.495       .  S
C228        C852   1.485       .  S
C229        C955   1.459       .  S
C230        C822   1.480       .  S
H231        O232   0.965       .  S
H233        O234   0.966       .  S
C235        C875   1.482       .  S
C235        C236   1.406       .  A
C235        C240   1.412       .  A
C236        C237   1.398       .  A
C236        H241   1.083       .  S
C237       C1245   1.483       .  S
C237        C238   1.396       .  A
C238        C239   1.395       .  A
C238        H242   1.084       .  S
C239        C815   1.479       .  S
C239        C240   1.408       .  A
C240        H243   1.083       .  S
C244        C855   1.494       .  S
C244        C245   1.412       .  A
C244        C249   1.414       .  A
C245        C246   1.400       .  A
C245        H250   1.083       .  S
C246       C1185   1.472       .  S
C246        C247   1.391       .  A
C247        C248   1.399       .  A
C247        H251   1.085       .  S
C248        C805   1.483       .  S
C248        C249   1.408       .  A
C249        H252   1.083       .  S
C253        C832   1.500       .  S
C253        C254   1.416   1_655  A
C253        C258   1.419       .  A
C254        C255   1.406       .  A
C254        H259   1.082       .  S
C255        C975   1.479       .  S
C255        C256   1.389   1_455  A
C256        C257   1.387       .  A
C256        H260   1.085       .  S
C257        C792   1.477       .  S
C257        C258   1.408       .  A
C258        H261   1.083       .  S
C262        C895   1.508       .  S
C262        C263   1.417       .  A
C262        C267   1.413       .  A
C263        C264   1.406       .  A
C263        H268   1.081       .  S
C264        C782   1.524       .  S
C264        C265   1.427       .  A
C265        C266   1.427       .  A
C265        H269   1.070       .  S
C266       C1022   1.539   1_655  S
C266        C267   1.410       .  A
C267        H270   1.081   1_655  S
O271        C282   1.296       .  A
O271       Eu307   2.481   1_455  S
O272        C283   1.297       .  A
O272       Eu306   2.488   1_455  S
O273        C284   1.290       .  A
O273       Eu279   2.456       .  S
O274        C285   1.289   1_455  A
O274       Eu279   2.451       .  S
O275        C285   1.290       .  A
O275       Eu309   2.455       .  S
O276        C284   1.291       .  A
O276       Eu308   2.461       .  S
O277        C283   1.285       .  A
O277       Eu279   2.424       .  S
O278        C282   1.284       .  A
O278       Eu279   2.422       .  S
Eu279       O289   2.341   1_455  S
Eu279       O281   2.342       .  S
Eu279       O280   2.355   1_455  S
Eu279       O287   2.350       .  S
O280       Eu309   2.349       .  S
O280       Eu306   2.352       .  S
O281       Eu307   2.343   1_455  S
O281       Eu308   2.332       .  S
C282       C1085   1.465       .  S
C283        C922   1.465       .  S
C284        C752   1.482       .  S
C285        C715   1.474       .  S
H286        O287   0.966       .  S
O287       Eu308   2.346       .  S
O287       Eu306   2.372   1_455  S
H288        O289   0.965       .  S
O289       Eu307   2.357       .  S
O289       Eu309   2.347       .  S
O290        C313   1.296       .  A
O290       Eu306   2.491       .  S
O291        C314   1.294       .  A
O291       Eu307   2.470       .  S
O292        C315   1.285       .  A
O292       Eu308   2.419       .  S
O293        C316   1.286       .  A
O293       Eu309   2.434       .  S
O294        C317   1.288       .  A
O294       Eu309   2.440       .  S
O295        C318   1.283       .  A
O295       Eu308   2.418       .  S
O296        C319   1.291       .  A
O296       Eu310   2.463       .  S
O297        C320   1.292       .  A
O297       Eu310   2.466       .  S
O298        C319   1.289   1_455  A
O298       Eu308   2.446       .  S
O299        C320   1.288       .  A
O299       Eu309   2.441       .  S
O300        C315   1.290       .  A
O300       Eu306   2.444   1_455  S
O301        C318   1.294       .  A
O301       Eu307   2.474   1_455  S
O302        C317   1.296       .  A
O302       Eu307   2.475       .  S
O303        C316   1.295       .  A
O303       Eu306   2.466       .  S
O304        C313   1.290       .  A
O304       Eu310   2.460       .  S
O305        C314   1.287       .  A
O305       Eu310   2.435       .  S
Eu306       O324   2.369       .  S
Eu306       O312   2.329       .  S
Eu307       O311   2.345       .  S
Eu307       O322   2.361       .  S
Eu308       O322   2.355   1_455  S
Eu308       O312   2.329   1_455  S
Eu309       O311   2.342       .  S
Eu309       O324   2.368       .  S
Eu310       O311   2.345       .  S
Eu310       O322   2.360       .  S
Eu310       O324   2.358       .  S
Eu310       O312   2.327       .  S
C313        C762   1.482       .  S
C314        C722   1.469       .  S
C315        C945   1.461       .  S
C316        C702   1.480       .  S
C317       C1065   1.475       .  S
C318        C742   1.460       .  S
C319        C772   1.477       .  S
C320        C732   1.475       .  S
H321        O322   0.966       .  S
H323        O324   0.966       .  S
C325        C735   1.482       .  S
C325        C326   1.412       .  A
C325        C330   1.408       .  A
C326        C327   1.407       .  A
C326        H331   1.083       .  S
C327       C1232   1.485       .  S
C327        C328   1.395       .  A
C328        C329   1.392       .  A
C328        H332   1.084       .  S
C329        C692   1.466       .  S
C329        C330   1.399       .  A
C330        H333   1.084       .  S
C334        C755   1.495       .  S
C334        C335   1.417       .  A
C334        C339   1.415       .  A
C335        C336   1.405       .  A
C335        H340   1.082       .  S
C336       C1172   1.481       .  S
C336        C337   1.393       .  A
C337        C338   1.391       .  A
C337        H341   1.085       .  S
C338        C682   1.471       .  S
C338        C339   1.402       .  A
C339        H342   1.083       .  S
C343        C712   1.486       .  S
C343        C344   1.411   1_655  A
C343        C348   1.408       .  A
C344        C345   1.407       .  A
C344        H349   1.083       .  S
C345        C965   1.482       .  S
C345        C346   1.396   1_455  A
C346        C347   1.393       .  A
C346        H350   1.085       .  S
C347        C672   1.469       .  S
C347        C348   1.395       .  A
C348        H351   1.083       .  S
C352        C775   1.498       .  S
C352        C353   1.416   1_655  A
C352        C357   1.420       .  A
C353        C354   1.395       .  A
C353        H358   1.082       .  S
C354       C1015   1.460       .  S
C354        C355   1.380   1_455  A
C355        C356   1.388       .  A
C355        H359   1.085       .  S
C356        C665   1.476       .  S
C356        C357   1.408       .  A
C357        H360   1.081       .  S
O361        C372   1.283       .  A
O361       Eu397   2.414       .  S
O362        C373   1.297       .  A
O362       Eu396   2.499       .  S
O363        C374   1.298       .  A
O363       Eu369   2.494   1_556  S
O364        C375   1.294       .  A
O364       Eu369   2.469       .  S
O365        C375   1.290       .  A
O365       Eu399   2.452       .  S
O366        C374   1.286       .  A
O366       Eu398   2.422       .  S
O367        C373   1.290       .  A
O367       Eu369   2.435   1_556  S
O368        C372   1.296       .  A
O368       Eu369   2.486       .  S
Eu369       O379   2.359       .  S
Eu369       O371   2.317   1_554  S
Eu369       O370   2.346       .  S
Eu369       O377   2.365   1_554  S
O370       Eu399   2.309       .  S
O370       Eu396   2.337   1_554  S
O371       Eu397   2.362   1_556  S
O371       Eu398   2.365       .  S
C372       C1125   1.472       .  S
C373        C625   1.480       .  S
C374        C645   1.471       .  S
C375       C1105   1.477       .  S
H376        O377   0.965       .  S
O377       Eu398   2.331       .  S
O377       Eu396   2.379       .  S
H378        O379   0.966       .  S
O379       Eu397   2.337       .  S
O379       Eu399   2.357       .  S
O380        C403   1.310       .  A
O380       Eu396   2.633       .  S
O381        C404   1.282       .  A
O381       Eu397   2.419       .  S
O382        C405   1.321       .  A
O382       Eu398   2.666       .  S
O383        C406   1.292       .  A
O383       Eu399   2.465       .  S
O384        C407   1.287       .  A
O384       Eu399   2.436       .  S
O385        C408   1.302       .  A
O385       Eu398   2.521       .  S
O386        C409   1.303       .  A
O386       Eu400   2.529   1_556  S
O387        C410   1.304       .  A
O387       Eu400   2.524       .  S
O388        C409   1.279       .  A
O388       Eu398   2.374       .  S
O389        C410   1.282       .  A
O389       Eu399   2.393       .  S
O390        C405   1.257       .  A
O390       Eu396   2.363       .  S
O391        C408   1.289   1_554  A
O391       Eu397   2.442       .  S
O392        C407   1.298       .  A
O392       Eu397   2.505       .  S
O393        C406   1.290   1_556  A
O393       Eu396   2.449       .  S
O394        C403   1.278       .  A
O394       Eu400   2.424   1_556  S
O395        C404   1.291       .  A
O395       Eu400   2.455       .  S
Eu396       O414   2.358   1_556  S
Eu396       O402   2.305       .  S
Eu397       O401   2.330       .  S
Eu397       O412   2.351       .  S
Eu398       O412   2.407   1_556  S
Eu398       O402   2.303       .  S
Eu399       O401   2.366       .  S
Eu399       O414   2.382       .  S
Eu400       O401   2.344       .  S
Eu400       O412   2.355       .  S
Eu400       O414   2.419       .  S
Eu400       O402   2.353   1_554  S
C403        C602   1.524       .  S
C404        C675   1.467       .  S
C405        C785   1.532       .  S
C406        C635   1.481       .  S
C407        C612   1.486       .  S
C408        C652   1.485       .  S
C409        C662   1.468       .  S
C410        C795   1.481       .  S
H411        O412   0.965       .  S
H413        O414   0.966       .  S
C415        C605   1.522       .  S
C415        C416   1.425       .  A
C415        C420   1.425       .  A
C416        C417   1.416       .  A
C416        H421   1.079       .  S
C417        C882   1.493       .  S
C417        C418   1.393       .  A
C418        C419   1.393       .  A
C418        H422   1.086       .  S
C419        C765   1.492       .  S
C419        C420   1.416       .  A
C420        H423   1.083       .  S
C424        C615   1.494       .  S
C424        C425   1.417       .  A
C424        C429   1.412       .  A
C425        C426   1.408       .  A
C425        H430   1.083       .  S
C426        C825   1.479       .  S
C426        C427   1.392       .  A
C427        C428   1.395       .  A
C427        H431   1.084       .  S
C428        C705   1.491       .  S
C428        C429   1.408       .  A
C429        H432   1.082       .  S
C433        C632   1.486       .  S
C433        C434   1.412       .  A
C433        C438   1.414   1_554  A
C434        C435   1.399       .  A
C434        H439   1.084       .  S
C435       C1145   1.471       .  S
C435        C436   1.391       .  A
C436        C437   1.394   1_554  A
C436        H440   1.085       .  S
C437        C595   1.482       .  S
C437        C438   1.410       .  A
C438        H441   1.083       .  S
C442        C655   1.489       .  S
C442        C443   1.417       .  A
C442        C447   1.410   1_554  A
C443        C444   1.411       .  A
C443        H448   1.083       .  S
C444       C1202   1.484       .  S
C444        C445   1.396       .  A
C445        C446   1.392   1_554  A
C445        H449   1.085       .  S
C446        C582   1.477       .  S
C446        C447   1.402       .  A
C447        H450   1.084       .  S
O451        C462   1.284       .  A
O451       Eu487   2.421       .  S
O452        C463   1.284       .  A
O452       Eu486   2.420       .  S
O453        C464   1.297       .  A
O453       Eu459   2.483       .  S
O454        C465   1.296       .  A
O454       Eu459   2.490   1_545  S
O455        C465   1.284       .  A
O455       Eu489   2.422       .  S
O456        C464   1.287       .  A
O456       Eu488   2.438       .  S
O457        C463   1.294       .  A
O457       Eu459   2.477       .  S
O458        C462   1.294       .  A
O458       Eu459   2.465   1_545  S
Eu459       O469   2.340   1_565  S
Eu459       O461   2.375       .  S
Eu459       O460   2.358       .  S
Eu459       O467   2.341       .  S
O460       Eu489   2.355   1_565  S
O460       Eu486   2.358       .  S
O461       Eu487   2.360   1_565  S
O461       Eu488   2.357       .  S
C462        C915   1.455       .  S
C463        C585   1.460       .  S
C464        C905   1.475       .  S
C465        C592   1.468       .  S
H466        O467   0.965       .  S
O467       Eu488   2.345       .  S
O467       Eu486   2.334       .  S
H468        O469   0.965       .  S
O469       Eu487   2.356       .  S
O469       Eu489   2.340       .  S
O470        C493   1.284       .  A
O470       Eu486   2.422       .  S
O471        C494   1.289       .  A
O471       Eu487   2.450       .  S
O472        C495   1.292       .  A
O472       Eu488   2.463       .  S
O473        C496   1.295       .  A
O473       Eu489   2.481   1_565  S
O474        C497   1.295       .  A
O474       Eu489   2.483       .  S
O475        C498   1.290       .  A
O475       Eu488   2.452       .  S
O476        C499   1.295       .  A
O476       Eu490   2.474       .  S
O477        C500   1.297       .  A
O477       Eu490   2.491   1_545  S
O478        C499   1.287       .  A
O478       Eu488   2.437       .  S
O479        C500   1.283       .  A
O479       Eu489   2.415       .  S
O480        C495   1.292       .  A
O480       Eu486   2.472       .  S
O481        C498   1.293       .  A
O481       Eu487   2.474   1_565  S
O482        C497   1.291       .  A
O482       Eu487   2.456       .  S
O483        C496   1.289       .  A
O483       Eu486   2.441       .  S
O484        C493   1.294       .  A
O484       Eu490   2.472       .  S
O485        C494   1.293       .  A
O485       Eu490   2.461   1_545  S
Eu486       O504   2.350       .  S
Eu486       O492   2.346       .  S
Eu487       O491   2.354       .  S
Eu487       O502   2.338   1_545  S
Eu488       O502   2.352       .  S
Eu488       O492   2.354       .  S
Eu489       O491   2.355       .  S
Eu489       O504   2.344   1_545  S
Eu490       O491   2.357   1_565  S
Eu490       O502   2.342       .  S
Eu490       O504   2.328       .  S
Eu490       O492   2.370       .  S
C493        C695   1.461       .  S
C494        C802   1.482       .  S
C495        C542   1.485       .  S
C496        C572   1.482       .  S
C497        C552   1.486       .  S
C498        C562   1.480       .  S
C499        C685   1.467       .  S
C500        C812   1.464       .  S
H501        O502   0.965       .  S
H503        O504   0.964       .  S
C505        C545   1.499       .  S
C505        C506   1.414       .  A
C505        C510   1.418       .  A
C506        C507   1.403       .  A
C506        H511   1.083       .  S
C507       C1045   1.484       .  S
C507        C508   1.392       .  A
C508        C509   1.395       .  A
C508        H512   1.083       .  S
C509        C642   1.494       .  S
C509        C510   1.413       .  A
C510        H513   1.081       .  S
C514        C555   1.494       .  S
C514        C515   1.413       .  A
C514        C519   1.410       .  A
C515        C516   1.409       .  A
C515        H520   1.083       .  S
C516        C995   1.497       .  S
C516        C517   1.404       .  A
C517        C518   1.402       .  A
C517        H521   1.083       .  S
C518        C622   1.485       .  S
C518        C519   1.403       .  A
C519        H522   1.083       .  S
C523        C565   1.493       .  S
C523        C524   1.414       .  A
C523        C528   1.413       .  A
C524        C525   1.408       .  A
C524        H529   1.082   1_565  S
C525        C845   1.483   1_565  S
C525        C526   1.395       .  A
C526        C527   1.392       .  A
C526        H530   1.084       .  S
C527        C745   1.476       .  S
C527        C528   1.400       .  A
C528        H531   1.083       .  S
C532        C575   1.491       .  S
C532        C533   1.411       .  A
C532        C537   1.415       .  A
C533        C534   1.400       .  A
C533        H538   1.083   1_565  S
C534        C862   1.474   1_565  S
C534        C535   1.394       .  A
C535        C536   1.395       .  A
C535        H539   1.084       .  S
C536        C725   1.482       .  S
C536        C537   1.405       .  A
C537        H540   1.083       .  S
C541        C542   1.404       .  A
C541        C546   1.397       .  A
C541        H548   1.084       .  S
C542        C543   1.407       .  A
C543        C544   1.406       .  A
C543        F550   1.357       .  S
C544        C545   1.410       .  A
C544        H549   1.082       .  S
C545        C546   1.412       .  A
C546        F547   1.358       .  S
C551        C552   1.406       .  A
C551        C556   1.397       .  A
C551        H558   1.084       .  S
C552        C553   1.407       .  A
C553        C554   1.405       .  A
C553        F560   1.357       .  S
C554        C555   1.409       .  A
C554        H559   1.083       .  S
C555        C556   1.409       .  A
C556        F557   1.358       .  S
C561        C562   1.404       .  A
C561        C566   1.394       .  A
C561        H568   1.084       .  S
C562        C563   1.406       .  A
C563        C564   1.405       .  A
C563        F570   1.357   1_565  S
C564        C565   1.410       .  A
C564        H569   1.083   1_565  S
C565        C566   1.410       .  A
C566        F567   1.358       .  S
C571        C572   1.404       .  A
C571        C576   1.402       .  A
C571        H578   1.083   1_565  S
C572        C573   1.411       .  A
C573        C574   1.393       .  A
C573        F580   1.358       .  S
C574        C575   1.403       .  A
C574        H579   1.083       .  S
C575        C576   1.413       .  A
C576        F577   1.357   1_565  S
C581        C582   1.404       .  A
C581        C586   1.396       .  A
C581        H588   1.083       .  S
C582        C583   1.410       .  A
C583        C584   1.397       .  A
C583        F590   1.358       .  S
C584        C585   1.399       .  A
C584        H589   1.084       .  S
C585        C586   1.403       .  A
C586        F587   1.358       .  S
C591        C592   1.398       .  A
C591        C596   1.397       .  A
C591        H598   1.084       .  S
C592        C593   1.408       .  A
C593        C594   1.400       .  A
C593        F600   1.358       .  S
C594        C595   1.403       .  A
C594        H599   1.083       .  S
C595        C596   1.412       .  A
C596        F597   1.358       .  S
C601        C602   1.406       .  A
C601        C606   1.408       .  A
C601        H608   1.070       .  S
C602        C603   1.409       .  A
C603        C604   1.426       .  A
C603        F610   1.356       .  S
C604        C605   1.416       .  A
C604        H609   1.083       .  S
C605        C606   1.408       .  A
C606        F607   1.357       .  S
C611        C612   1.404       .  A
C611        C616   1.404       .  A
C611        H618   1.083       .  S
C612        C613   1.409       .  A
C613        C614   1.403       .  A
C613        F620   1.358       .  S
C614        C615   1.405       .  A
C614        H619   1.083       .  S
C615        C616   1.411       .  A
C616        F617   1.357       .  S
C621        C622   1.407       .  A
C621        C626   1.406       .  A
C621        H628   1.083       .  S
C622        C623   1.406       .  A
C623        C624   1.394       .  A
C623        F630   1.358       .  S
C624        C625   1.404       .  A
C624        H629   1.084       .  S
C625        C626   1.408       .  A
C626        F627   1.357       .  S
C631        C632   1.409   1_556  A
C631        C636   1.409       .  A
C631        H638   1.083       .  S
C632        C633   1.404       .  A
C633        C634   1.392       .  A
C633        F640   1.358       .  S
C634        C635   1.404       .  A
C634        H639   1.082       .  S
C635        C636   1.407   1_554  A
C636        F637   1.357       .  S
C641        C642   1.415       .  A
C641        C646   1.395       .  A
C641        H648   1.083       .  S
C642        C643   1.407       .  A
C643        C644   1.400       .  A
C643        F650   1.357       .  S
C644        C645   1.405       .  A
C644        H649   1.079       .  S
C645        C646   1.396       .  A
C646        F647   1.358       .  S
C651        C652   1.401       .  A
C651        C656   1.402       .  A
C651        H658   1.078       .  S
C652        C653   1.409   1_556  A
C653        C654   1.405       .  A
C653        F660   1.356       .  S
C654        C655   1.404       .  A
C654        H659   1.083       .  S
C655        C656   1.409   1_554  A
C656        F657   1.358       .  S
C661        C662   1.396       .  A
C661        C666   1.393       .  A
C661        H668   1.084       .  S
C662        C663   1.414       .  A
C663        C664   1.392       .  A
C663        F670   1.357       .  S
C664        C665   1.397       .  A
C664        H669   1.083       .  S
C665        C666   1.414       .  A
C666        F667   1.358       .  S
C671        C672   1.399       .  A
C671        C676   1.400       .  A
C671        H678   1.083       .  S
C672        C673   1.408       .  A
C673        C674   1.385       .  A
C673        F680   1.359       .  S
C674        C675   1.397       .  A
C674        H679   1.084       .  S
C675        C676   1.411       .  A
C676        F677   1.356       .  S
C681        C682   1.404       .  A
C681        C686   1.391       .  A
C681        H688   1.084       .  S
C682        C683   1.403       .  A
C683        C684   1.402       .  A
C683        F690   1.357       .  S
C684        C685   1.407       .  A
C684        H689   1.083       .  S
C685        C686   1.401       .  A
C686        F687   1.358       .  S
C691        C692   1.404       .  A
C691        C696   1.391       .  A
C691        H698   1.084       .  S
C692        C693   1.403       .  A
C693        C694   1.398       .  A
C693        F700   1.357       .  S
C694        C695   1.404       .  A
C694        H699   1.083       .  S
C695        C696   1.401       .  A
C696        F697   1.358       .  S
C701        C702   1.397       .  A
C701        C706   1.385       .  A
C701        H708   1.083       .  S
C702        C703   1.414       .  A
C703        C704   1.402       .  A
C703        F710   1.357       .  S
C704        C705   1.405       .  A
C704        H709   1.083       .  S
C705        C706   1.417       .  A
C706        F707   1.356       .  S
C711        C712   1.406   1_455  A
C711        C716   1.400       .  A
C711        H718   1.083       .  S
C712        C713   1.411       .  A
C713        C714   1.393       .  A
C713        F720   1.357       .  S
C714        C715   1.400       .  A
C714        H719   1.084       .  S
C715        C716   1.407   1_655  A
C716        F717   1.357       .  S
C721        C722   1.406       .  A
C721        C726   1.400       .  A
C721        H728   1.084       .  S
C722        C723   1.400       .  A
C723        C724   1.393       .  A
C723        F730   1.356       .  S
C724        C725   1.407       .  A
C724        H729   1.083       .  S
C725        C726   1.407       .  A
C726        F727   1.357       .  S
C731        C732   1.404       .  A
C731        C736   1.403       .  A
C731        H738   1.083       .  S
C732        C733   1.408       .  A
C733        C734   1.392       .  A
C733        F740   1.358       .  S
C734        C735   1.402       .  A
C734        H739   1.084       .  S
C735        C736   1.409       .  A
C736        F737   1.357       .  S
C741        C742   1.397       .  A
C741        C746   1.392       .  A
C741        H748   1.082       .  S
C742        C743   1.405       .  A
C743        C744   1.398       .  A
C743        F750   1.358       .  S
C744        C745   1.404       .  A
C744        H749   1.083       .  S
C745        C746   1.408       .  A
C746        F747   1.358       .  S
C751        C752   1.404       .  A
C751        C756   1.402       .  A
C751        H758   1.083       .  S
C752        C753   1.408       .  A
C753        C754   1.397       .  A
C753        F760   1.358       .  S
C754        C755   1.407       .  A
C754        H759   1.082       .  S
C755        C756   1.412       .  A
C756        F757   1.357       .  S
C761        C762   1.401       .  A
C761        C766   1.407       .  A
C761        H768   1.083       .  S
C762        C763   1.406       .  A
C763        C764   1.402       .  A
C763        F770   1.353       .  S
C764        C765   1.401       .  A
C764        H769   1.083       .  S
C765        C766   1.416       .  A
C766        F767   1.358       .  S
C771        C772   1.403       .  A
C771        C776   1.403       .  A
C771        H778   1.083       .  S
C772        C773   1.405   1_655  A
C773        C774   1.391       .  A
C773        F780   1.359       .  S
C774        C775   1.409   1_455  A
C774        H779   1.081       .  S
C775        C776   1.414       .  A
C776        F777   1.356       .  S
C781        C782   1.422       .  A
C781        C786   1.427       .  A
C781        H788   1.075       .  S
C782        C783   1.401       .  A
C783        C784   1.406       .  A
C783        F790   1.357       .  S
C784        C785   1.423       .  A
C784        H789   1.083       .  S
C785        C786   1.406       .  A
C786        F787   1.356       .  S
C791        C792   1.412       .  A
C791        C796   1.398       .  A
C791        H798   1.084       .  S
C792        C793   1.396       .  A
C793        C794   1.397       .  A
C793        F800   1.357       .  S
C794        C795   1.415       .  A
C794        H799   1.083       .  S
C795        C796   1.401       .  A
C796        F797   1.357       .  S
C801        C802   1.411       .  A
C801        C806   1.404       .  A
C801        H808   1.083       .  S
C802        C803   1.406       .  A
C803        C804   1.390       .  A
C803        F810   1.357       .  S
C804        C805   1.406       .  A
C804        H809   1.084       .  S
C805        C806   1.404       .  A
C806        F807   1.357       .  S
C811        C812   1.397       .  A
C811        C816   1.395       .  A
C811        H818   1.084       .  S
C812        C813   1.406       .  A
C813        C814   1.401       .  A
C813        F820   1.358       .  S
C814        C815   1.403       .  A
C814        H819   1.083       .  S
C815        C816   1.410       .  A
C816        F817   1.358       .  S
C821        C822   1.413       .  A
C821        C826   1.403       .  A
C821        H828   1.083       .  S
C822        C823   1.401       .  A
C823        C824   1.397       .  A
C823        F830   1.357       .  S
C824        C825   1.409       .  A
C824        H829   1.083       .  S
C825        C826   1.400       .  A
C826        F827   1.357       .  S
C831        C832   1.408       .  A
C831        C836   1.405       .  A
C831        H838   1.083       .  S
C832        C833   1.412   1_655  A
C833        C834   1.400       .  A
C833        F840   1.357       .  S
C834        C835   1.406   1_455  A
C834        H839   1.083       .  S
C835        C836   1.411       .  A
C836        F837   1.357       .  S
C841        C842   1.404       .  A
C841        C846   1.399       .  A
C841        H848   1.084       .  S
C842        C843   1.399       .  A
C843        C844   1.393       .  A
C843        F850   1.358       .  S
C844        C845   1.410       .  A
C844        H849   1.084       .  S
C845        C846   1.407       .  A
C846        F847   1.357       .  S
C851        C852   1.407       .  A
C851        C856   1.404       .  A
C851        H858   1.083       .  S
C852        C853   1.408       .  A
C853        C854   1.395       .  A
C853        F860   1.358       .  S
C854        C855   1.407       .  A
C854        H859   1.083       .  S
C855        C856   1.410       .  A
C856        F857   1.357       .  S
C861        C862   1.404       .  A
C861        C866   1.391       .  A
C861        H868   1.084       .  S
C862        C863   1.405       .  A
C863        C864   1.399       .  A
C863        F870   1.357       .  S
C864        C865   1.405       .  A
C864        H869   1.083       .  S
C865        C866   1.404       .  A
C866        F867   1.357       .  S
C871        C872   1.402       .  A
C871        C876   1.392       .  A
C871        H878   1.084       .  S
C872        C873   1.410       .  A
C873        C874   1.403       .  A
C873        F880   1.357       .  S
C874        C875   1.404       .  A
C874        H879   1.083       .  S
C875        C876   1.408       .  A
C876        F877   1.358       .  S
C881        C882   1.404       .  A
C881        C886   1.399       .  A
C881        H888   1.084       .  S
C882        C883   1.409       .  A
C883        C884   1.413       .  A
C883        F890   1.357       .  S
C884        C885   1.411       .  A
C884        H889   1.083       .  S
C885        C886   1.412       .  A
C886        F887   1.356       .  S
C891        C892   1.410       .  A
C891        C896   1.400       .  A
C891        H898   1.083       .  S
C892        C893   1.406   1_655  A
C893        C894   1.405   1_455  A
C893        F900   1.355       .  S
C894        C895   1.413       .  A
C894        H899   1.082   1_655  S
C895        C896   1.411       .  A
C896        F897   1.357       .  S
C901        C902   1.402       .  A
C901        C906   1.404       .  A
C901        H908   1.083       .  S
C902        C903   1.409       .  A
C903        C904   1.392       .  A
C903        F910   1.358       .  S
C904        C905   1.399       .  A
C904        H909   1.084       .  S
C905        C906   1.411       .  A
C906        F907   1.357       .  S
C911        C912   1.402       .  A
C911        C916   1.387       .  A
C911        H918   1.084       .  S
C912        C913   1.402       .  A
C913        C914   1.398       .  A
C913        F920   1.357       .  S
C914        C915   1.404       .  A
C914        H919   1.083       .  S
C915        C916   1.400       .  A
C916        F917   1.358       .  S
C921        C922   1.408       .  A
C921        C926   1.399       .  A
C921        H928   1.084       .  S
C922        C923   1.399       .  A
C923        C924   1.393       .  A
C923        F930   1.357       .  S
C924        C925   1.406       .  A
C924        H929   1.083       .  S
C925        C926   1.400       .  A
C926        F927   1.357       .  S
C931        C932   1.401       .  A
C931        C936   1.403       .  A
C931        H938   1.083       .  S
C932        C933   1.411       .  A
C933        C934   1.386       .  A
C933        F940   1.357       .  S
C934        C935   1.397       .  A
C934        H939   1.084       .  S
C935        C936   1.413       .  A
C936        F937   1.358       .  S
C941        C942   1.403       .  A
C941        C946   1.386       .  A
C941        H948   1.084       .  S
C942        C943   1.399       .  A
C943        C944   1.393       .  A
C943        F950   1.357       .  S
C944        C945   1.406       .  A
C944        H949   1.083       .  S
C945        C946   1.404       .  A
C946        F947   1.358       .  S
C951        C952   1.411       .  A
C951        C956   1.395       .  A
C951        H958   1.084       .  S
C952        C953   1.403       .  A
C953        C954   1.392       .  A
C953        F960   1.358       .  S
C954        C955   1.401       .  A
C954        H959   1.078       .  S
C955        C956   1.398       .  A
C956        F957   1.358       .  S
C961        C962   1.400       .  A
C961        C966   1.395       .  A
C961        H968   1.084       .  S
C962        C963   1.401       .  A
C963        C964   1.397       .  A
C963        F970   1.357       .  S
C964        C965   1.408       .  A
C964        H969   1.083       .  S
C965        C966   1.410       .  A
C966        F967   1.358       .  S
C971        C972   1.400       .  A
C971        C976   1.393       .  A
C971        H978   1.080       .  S
C972        C973   1.401       .  A
C973        C974   1.398       .  A
C973        F980   1.358       .  S
C974        C975   1.411       .  A
C974        H979   1.084       .  S
C975        C976   1.406       .  A
C976        F977   1.357       .  S
C981        C982   1.406       .  A
C981        C986   1.395       .  A
C981        H988   1.082       .  S
C982        C983   1.413       .  A
C983        C984   1.403       .  A
C983        F990   1.357       .  S
C984        C985   1.405       .  A
C984        H989   1.083       .  S
C985        C986   1.407       .  A
C986        F987   1.355       .  S
C991        C992   1.403       .  A
C991        C996   1.398       .  A
C991        H998   1.083       .  S
C992        C993   1.406       .  A
C993        C994   1.404       .  A
C993       F1000   1.356       .  S
C994        C995   1.409       .  A
C994        H999   1.083       .  S
C995        C996   1.412       .  A
C996        F997   1.358       .  S
C1001      C1002   1.401   1_556  A
C1001      C1006   1.391       .  A
C1001      H1008   1.083       .  S
C1002      C1003   1.403       .  A
C1003      C1004   1.402       .  A
C1003      F1010   1.357       .  S
C1004      C1005   1.404       .  A
C1004      H1009   1.083       .  S
C1005      C1006   1.402   1_554  A
C1006      F1007   1.358       .  S
C1011      C1012   1.407       .  A
C1011      C1016   1.392       .  A
C1011      H1018   1.084       .  S
C1012      C1013   1.401       .  A
C1013      C1014   1.391       .  A
C1013      F1020   1.358       .  S
C1014      C1015   1.406       .  A
C1014      H1019   1.084       .  S
C1015      C1016   1.398       .  A
C1016      F1017   1.357       .  S
C1021      C1022   1.420       .  A
C1021      C1026   1.415       .  A
C1021      H1028   1.082       .  S
C1022      C1023   1.417       .  A
C1023      C1024   1.420       .  A
C1023      F1030   1.356   1_455  S
C1024      C1025   1.415       .  A
C1024      H1029   1.083       .  S
C1025      C1026   1.409       .  A
C1026      F1027   1.357       .  S
C1031      C1032   1.403       .  A
C1031      C1036   1.398       .  A
C1031      H1038   1.083       .  S
C1032      C1033   1.401       .  A
C1033      C1034   1.392       .  A
C1033      F1040   1.358       .  S
C1034      C1035   1.408       .  A
C1034      H1039   1.083       .  S
C1035      C1036   1.408       .  A
C1036      F1037   1.357       .  S
C1041      C1042   1.397       .  A
C1041      C1046   1.392       .  A
C1041      H1048   1.083       .  S
C1042      C1043   1.408       .  A
C1043      C1044   1.399       .  A
C1043      F1050   1.356       .  S
C1044      C1045   1.404       .  A
C1044      H1049   1.083       .  S
C1045      C1046   1.412       .  A
C1046      F1047   1.358       .  S
C1051      C1052   1.405       .  A
C1051      C1056   1.408       .  A
C1051      H1058   1.083       .  S
C1052      C1053   1.405       .  A
C1053      C1054   1.399       .  A
C1053      F1060   1.357       .  S
C1054      C1055   1.403       .  A
C1054      H1059   1.083       .  S
C1055      C1056   1.409       .  A
C1056      F1057   1.357       .  S
C1061      C1062   1.406       .  A
C1061      C1066   1.391       .  A
C1061      H1068   1.083       .  S
C1062      C1063   1.402       .  A
C1063      C1064   1.404       .  A
C1063      F1070   1.357       .  S
C1064      C1065   1.411       .  A
C1064      H1069   1.083       .  S
C1065      C1066   1.401       .  A
C1066      F1067   1.358       .  S
C1071      C1072   1.411       .  A
C1071      C1076   1.405       .  A
C1071      H1078   1.083       .  S
C1072      C1073   1.404       .  A
C1073      C1074   1.386       .  A
C1073      F1080   1.357       .  S
C1074      C1075   1.407       .  A
C1074      H1079   1.082   1_545  S
C1075      C1076   1.405       .  A
C1076      F1077   1.357       .  S
C1081      C1082   1.405       .  A
C1081      C1086   1.391       .  A
C1081      H1088   1.084       .  S
C1082      C1083   1.402       .  A
C1083      C1084   1.401       .  A
C1083      F1090   1.357       .  S
C1084      C1085   1.407       .  A
C1084      H1089   1.083       .  S
C1085      C1086   1.400       .  A
C1086      F1087   1.358       .  S
C1091      C1092   1.399       .  A
C1091      C1096   1.391       .  A
C1091      H1098   1.084       .  S
C1092      C1093   1.411       .  A
C1093      C1094   1.398       .  A
C1093      F1100   1.357       .  S
C1094      C1095   1.399       .  A
C1094      H1099   1.083       .  S
C1095      C1096   1.409       .  A
C1096      F1097   1.358   1_545  S
C1101      C1102   1.405       .  A
C1101      C1106   1.401       .  A
C1101      H1108   1.083       .  S
C1102      C1103   1.412       .  A
C1103      C1104   1.394       .  A
C1103      F1110   1.358       .  S
C1104      C1105   1.401       .  A
C1104      H1109   1.084       .  S
C1105      C1106   1.409       .  A
C1106      F1107   1.356       .  S
C1111      C1112   1.403       .  A
C1111      C1116   1.401       .  A
C1111      H1118   1.083       .  S
C1112      C1113   1.409       .  A
C1113      C1114   1.397       .  A
C1113      F1120   1.358       .  S
C1114      C1115   1.402       .  A
C1114      H1119   1.084       .  S
C1115      C1116   1.409       .  A
C1116      F1117   1.357       .  S
C1121      C1122   1.408       .  A
C1121      C1126   1.392       .  A
C1121      H1128   1.084       .  S
C1122      C1123   1.401       .  A
C1123      C1124   1.400       .  A
C1123      F1130   1.357       .  S
C1124      C1125   1.410       .  A
C1124      H1129   1.083       .  S
C1125      C1126   1.401       .  A
C1126      F1127   1.358       .  S
C1131      C1132   1.408       .  A
C1131      C1136   1.392       .  A
C1131      H1138   1.084       .  S
C1132      C1133   1.402       .  A
C1133      C1134   1.404       .  A
C1133      F1140   1.357       .  S
C1134      C1135   1.411       .  A
C1134      H1139   1.083       .  S
C1135      C1136   1.402       .  A
C1136      F1137   1.358       .  S
C1141      C1142   1.399       .  A
C1141      C1146   1.390       .  A
C1141      H1148   1.081       .  S
C1142      C1143   1.408       .  A
C1143      C1144   1.401       .  A
C1143      F1150   1.357       .  S
C1144      C1145   1.402       .  A
C1144      H1149   1.083       .  S
C1145      C1146   1.406       .  A
C1146      F1147   1.358       .  S
C1151      C1152   1.398       .  A
C1151      C1156   1.390       .  A
C1151      H1158   1.081       .  S
C1152      C1153   1.411       .  A
C1153      C1154   1.400       .  A
C1153      F1160   1.357       .  S
C1154      C1155   1.400       .  A
C1154      H1159   1.083       .  S
C1155      C1156   1.410       .  A
C1156      F1157   1.359       .  S
C1161      C1162   1.407       .  A
C1161      C1166   1.398       .  A
C1161      H1168   1.083       .  S
C1162      C1163   1.411       .  A
C1163      C1164   1.404       .  A
C1163      F1170   1.357       .  S
C1164      C1165   1.407       .  A
C1164      H1169   1.083       .  S
C1165      C1166   1.411       .  A
C1166      F1167   1.358       .  S
C1171      C1172   1.402       .  A
C1171      C1176   1.402       .  A
C1171      H1178   1.083       .  S
C1172      C1173   1.411       .  A
C1173      C1174   1.390       .  A
C1173      F1180   1.358       .  S
C1174      C1175   1.399       .  A
C1174      H1179   1.084       .  S
C1175      C1176   1.412       .  A
C1176      F1177   1.357       .  S
C1181      C1182   1.399       .  A
C1181      C1186   1.395       .  A
C1181      H1188   1.084       .  S
C1182      C1183   1.405       .  A
C1183      C1184   1.400       .  A
C1183      F1190   1.356       .  S
C1184      C1185   1.403       .  A
C1184      H1189   1.083       .  S
C1185      C1186   1.406       .  A
C1186      F1187   1.358       .  S
C1191      C1192   1.403       .  A
C1191      C1196   1.405       .  A
C1191      H1198   1.083   1_565  S
C1192      C1193   1.410       .  A
C1193      C1194   1.391       .  A
C1193      F1200   1.359       .  S
C1194      C1195   1.403       .  A
C1194      H1199   1.083       .  S
C1195      C1196   1.413       .  A
C1196      F1197   1.357   1_565  S
C1201      C1202   1.407       .  A
C1201      C1206   1.390       .  A
C1201      H1208   1.084       .  S
C1202      C1203   1.404       .  A
C1203      C1204   1.407       .  A
C1203      F1210   1.357       .  S
C1204      C1205   1.412       .  A
C1204      H1209   1.083       .  S
C1205      C1206   1.402       .  A
C1206      F1207   1.356       .  S
C1211      C1212   1.406       .  A
C1211      C1216   1.393       .  A
C1211      H1218   1.084       .  S
C1212      C1213   1.402       .  A
C1213      C1214   1.402       .  A
C1213      F1220   1.357       .  S
C1214      C1215   1.408       .  A
C1214      H1219   1.083       .  S
C1215      C1216   1.400       .  A
C1216      F1217   1.355       .  S
C1221      C1222   1.407       .  A
C1221      C1226   1.397       .  A
C1221      H1228   1.084       .  S
C1222      C1223   1.405       .  A
C1223      C1224   1.407       .  A
C1223      F1230   1.357       .  S
C1224      C1225   1.413       .  A
C1224      H1229   1.083       .  S
C1225      C1226   1.409       .  A
C1226      F1227   1.357       .  S
C1231      C1232   1.410       .  A
C1231      C1236   1.394       .  A
C1231      H1238   1.083       .  S
C1232      C1233   1.408       .  A
C1233      C1234   1.398       .  A
C1233      F1240   1.357       .  S
C1234      C1235   1.404       .  A
C1234      H1239   1.081       .  S
C1235      C1236   1.400       .  A
C1236      F1237   1.358       .  S
C1241      C1242   1.400       .  A
C1241      C1246   1.395       .  A
C1241      H1248   1.084       .  S
C1242      C1243   1.400       .  A
C1243      C1244   1.390       .  A
C1243      F1250   1.356       .  S
C1244      C1245   1.407       .  A
C1244      H1249   1.083       .  S
C1245      C1246   1.411       .  A
C1246      F1247   1.356       .  S
C1251      C1252   1.404       .  A
C1251      C1256   1.406       .  A
C1251      H1258   1.083       .  S
C1252      C1253   1.403       .  A
C1253      C1254   1.393       .  A
C1253      F1260   1.356       .  S
C1254      C1255   1.401       .  A
C1254      H1259   1.084       .  S
C1255      C1256   1.409       .  A
C1256      F1257   1.357       .  S
