geometry optimzed in LAMMPS
_audit_creation_date              2020-11-30 
_audit_creation_method            'lammps2cif' 
_symmetry_space_group_name_H-M    'P1' 
_symmetry_Int_Tables_number       1 
_symmetry_cell_setting            triclinic 
loop_ 
_symmetry_equiv_pos_as_xyz 
  x,y,z 
_cell_length_a                    34.212769059708364 
_cell_length_b                    34.71740231924185 
_cell_length_c                    34.73696372042043 
_cell_angle_alpha                 90.41502829797044 
_cell_angle_beta                  89.82722595984588 
_cell_angle_gamma                 90.30266349908266 
loop_ 
_atom_site_label 
_atom_site_type_symbol 
_atom_site_fract_x 
_atom_site_fract_y 
_atom_site_fract_z 
_atom_site_charge 
O1          O  0.61444574  0.93656643  0.26894959    -0.80070
O2          O  0.45384742  0.08996281  0.25383903    -0.81620
O3          O  0.57605785  0.04448986  0.20510184    -0.78640
O4          O  0.55945977  0.05504371  0.32763731    -0.77030
O5          O  0.52883235  0.01905528  0.37396081    -0.78820
O6          O  0.54336770  0.01315515  0.15655657    -0.79750
O7          O  0.52086729  0.09150379  0.25420852    -0.81080
O8          O  0.61403785  0.00259427  0.27183708    -0.81370
Eu9        Eu  0.54562091  0.02528669  0.26521889     2.39200
O10         O  0.48784646  0.02479100  0.30183970    -0.88880
O11         O  0.54750824  0.96928568  0.22687139    -0.92480
C12         C  0.63141750  0.96954682  0.27202559     1.02210
C13         C  0.48702751  0.10756137  0.25037136     1.02030
C14         C  0.56983743  0.03686774  0.16937499     1.01970
C15         C  0.55071744  0.04726765  0.36281419     0.99830
H16         H  0.49180108  0.04422295  0.20713707     0.29580
O17         O  0.49133136  0.02227562  0.22394025    -1.01260
H18         H  0.56712756  0.97137863  0.32183962     0.29610
O19         O  0.54497474  0.97046648  0.30469525    -1.03810
O20         O  0.36530096  0.99634580  0.26391487    -0.81030
O21         O  0.52637466  0.84620493  0.25386080    -0.80570
O22         O  0.44961801  0.01375106  0.15242569    -0.79010
O23         O  0.44396826  0.02048730  0.37004083    -0.82350
O24         O  0.53273133  0.92720516  0.37518683    -0.80200
O25         O  0.54543956  0.92545043  0.15599293    -0.78850
O26         O  0.41380908  0.88995840  0.20083336    -0.80370
O27         O  0.41477705  0.88804425  0.32453625    -0.82300
O28         O  0.44693302  0.92199835  0.15313580    -0.79030
O29         O  0.44001487  0.92635918  0.37247856    -0.81710
O30         O  0.41192574  0.04310275  0.19822394    -0.77440
O31         O  0.57721592  0.89485519  0.20509337    -0.77480
O32         O  0.56668424  0.89244634  0.32993270    -0.77120
O33         O  0.41182910  0.05074300  0.32114715    -0.80620
O34         O  0.36955384  0.93078467  0.26279871    -0.80040
O35         O  0.45952934  0.84475428  0.25379577    -0.78370
Eu36       Eu  0.43339568  0.02192695  0.26083153     2.39770
Eu37       Eu  0.54713761  0.91412272  0.26586216     2.39570
Eu38       Eu  0.49424607  0.96774052  0.18409430     2.38400
Eu39       Eu  0.48745438  0.97058560  0.34201679     2.39880
Eu40       Eu  0.43775131  0.91190141  0.26246073     2.39790
O41         O  0.49089033  0.91303797  0.30479503    -0.92790
O42         O  0.43684803  0.96620832  0.22211790    -0.91680
C43         C  0.34994798  0.96216986  0.26533335     1.02380
C44         C  0.49317969  0.82871717  0.24920398     1.01100
C45         C  0.42271860  0.03770830  0.16313890     1.00490
C46         C  0.41998689  0.04590817  0.35687964     1.02510
C47         C  0.55794218  0.90144368  0.36501169     1.01420
C48         C  0.57176666  0.90243859  0.16931684     1.00270
C49         C  0.42107768  0.89743335  0.16542079     1.00330
C50         C  0.41815433  0.89851184  0.35999239     1.02940
H51         H  0.49482574  0.89126514  0.20676415     0.30310
O52         O  0.49388416  0.91336585  0.22372914    -1.04950
H53         H  0.40988357  0.96753911  0.31666301     0.32360
O54         O  0.43326665  0.96779774  0.30103785    -1.07510
C55         C  0.48500035  0.67907045  0.17330188     0.03190
C56         C  0.51898612  0.65996980  0.16013711    -0.12960
C57         C  0.51593916  0.62401105  0.14120294     0.00690
C58         C  0.47906708  0.60742084  0.13628844    -0.11490
C59         C  0.44513951  0.62687373  0.14672778     0.03180
C60         C  0.44790867  0.66257160  0.16590868    -0.10910
H61         H  0.54736390  0.67345184  0.16384679     0.08780
H62         H  0.47646640  0.57971594  0.12180139     0.06300
H63         H  0.42157963  0.67797192  0.17378965     0.06150
C64         C  0.48391179  0.26014138  0.18391790     0.03190
C65         C  0.44910859  0.27195287  0.16614392    -0.12960
C66         C  0.44913340  0.30424963  0.14208715     0.00690
C67         C  0.48363643  0.32525851  0.13708114    -0.11490
C68         C  0.51857053  0.31433812  0.15453755     0.03180
C69         C  0.51868772  0.28126772  0.17783069    -0.10910
H70         H  0.42259703  0.25510911  0.16968685     0.08780
H71         H  0.48344450  0.34989685  0.11814110     0.06300
H72         H  0.54581994  0.27128618  0.19017808     0.06150
C73         C  0.18822432  0.95460622  0.31657782     0.03190
C74         C  0.17122645  0.98853736  0.33174426    -0.12960
C75         C  0.13726897  0.98662365  0.35457516     0.00690
C76         C  0.12108595  0.95067763  0.36303821    -0.11490
C77         C  0.13729337  0.91697545  0.34860225     0.03180
C78         C  0.16991534  0.91878746  0.32437120    -0.10910
H79         H  0.18501247  0.01619997  0.32720815     0.08780
H80         H  0.09642659  0.94862931  0.38266287     0.06300
H81         H  0.18211158  0.89210089  0.31353766     0.06150
C82         C  0.79472701  0.95511724  0.30723444     0.03190
C83         C  0.81204903  0.98880554  0.32185894    -0.12960
C84         C  0.84587606  0.98663248  0.34379319     0.00690
C85         C  0.86298402  0.95115466  0.35047396    -0.11490
C86         C  0.84728552  0.91689585  0.33519704     0.03180
C87         C  0.81310048  0.91923387  0.31256545    -0.10910
H88         H  0.79721420  0.01619063  0.31924199     0.08780
H89         H  0.88759518  0.95040566  0.37003435     0.06300
H90         H  0.79949548  0.89351346  0.30096165     0.06150
O91         O  0.33533627  0.51040368  0.05090722    -0.80070
O92         O  0.11453978  0.50914051  0.05812514    -0.81620
O93         O  0.23448834  0.58348020  0.04712578    -0.78640
O94         O  0.22304897  0.49118095  0.13469068    -0.77030
O95         O  0.22229277  0.42559389  0.13083453    -0.78820
O96         O  0.23885845  0.58307835  0.98129394    -0.79750
O97         O  0.16374085  0.54133004  0.08942196    -0.81080
O98         O  0.28917838  0.53876850  0.08969160    -0.81370
Eu99       Eu  0.22606223  0.51589169  0.06735604     2.39200
O100        O  0.18430094  0.46212033  0.06630035    -0.88880
O101        O  0.26473189  0.51589754  0.01102113    -0.92480
C102        C  0.32449063  0.53435109  0.07781157     1.02210
C103        C  0.12741988  0.53448356  0.08243472     1.02030
C104        C  0.24073409  0.60014952  0.01452714     1.01970
C105        C  0.22103022  0.45732936  0.15013048     0.99830
H106        H  0.17127217  0.54132620  0.01270524     0.29580
O107        O  0.18606689  0.51771324  0.01203864    -1.01260
H108        H  0.28300430  0.46022350  0.08766818     0.29610
O109        O  0.26638845  0.46117120  0.06526001    -1.03810
O110        O  0.10477885  0.42388291  0.96615804    -0.81030
O111        O  0.33144712  0.41587154  0.95964745    -0.80570
O112        O  0.16538134  0.54501434  0.93666503    -0.79010
O113        O  0.16377128  0.38003243  0.08323905    -0.82350
O114        O  0.28703481  0.38167820  0.08300121    -0.80200
O115        O  0.28833532  0.53706157  0.92867449    -0.78850
O116        O  0.21807549  0.42933317  0.88794081    -0.80370
O117        O  0.22729374  0.33951587  0.97459430    -0.82300
O118        O  0.21866254  0.49500199  0.88765082    -0.79030
O119        O  0.23518650  0.34254183  0.03995592    -0.81710
O120        O  0.11544100  0.51211060  0.96638531    -0.77440
O121        O  0.33508685  0.50418329  0.96114786    -0.77480
O122        O  0.33478736  0.41212183  0.04838110    -0.77120
O123        O  0.11403431  0.41433970  0.05614558    -0.80620
O124        O  0.14941215  0.38964867  0.93069135    -0.80040
O125        O  0.28227900  0.38339901  0.92803448    -0.78370
Eu126      Eu  0.14326229  0.46359213  0.01174498     2.39770
Eu127      Eu  0.30368094  0.46104865  0.00781025     2.39570
Eu128      Eu  0.22572721  0.51706604  0.95597410     2.38400
Eu129      Eu  0.22449337  0.40767875  0.06286962     2.39880
Eu130      Eu  0.21859110  0.40642937  0.95327061     2.39790
O131        O  0.26078217  0.40828196  0.00646935    -0.92790
O132        O  0.18268691  0.46368545  0.95609774    -0.91680
C133        C  0.11358705  0.39974707  0.93904749     1.02380
C134        C  0.31877964  0.39099347  0.93458191     1.01100
C135        C  0.12923355  0.53805743  0.94317022     1.00490
C136        C  0.12753658  0.38686723  0.07752593     1.02510
C137        C  0.32288906  0.38684709  0.07300471     1.01420
C138        C  0.32419863  0.52864869  0.93550088     1.00270
C139        C  0.21613771  0.46172271  0.87057335     1.00330
C140        C  0.23591039  0.32470677  0.00746310     1.02940
H141        H  0.27717628  0.46017735  0.93022765     0.30310
O142        O  0.26187057  0.46027352  0.95362375    -1.04950
H143        H  0.16510073  0.38375653  0.00939044     0.32360
O144        O  0.18123880  0.40666165  0.00973499    -1.07510
C145        C  0.16706199  0.45950336  0.70977587     0.03190
C146        C  0.15461527  0.42431846  0.69247406    -0.12960
C147        C  0.13132860  0.42449182  0.65948935     0.00690
C148        C  0.12580163  0.45854210  0.63994484    -0.11490
C149        C  0.13935388  0.49340283  0.65455394     0.03180
C150        C  0.15808376  0.49419247  0.69054003    -0.10910
H151        H  0.16100502  0.39677416  0.70522933     0.08780
H152        H  0.10820446  0.45803576  0.61402442     0.06300
H153        H  0.16384927  0.52184494  0.70376843     0.06150
C154        C  0.18770029  0.45277818  0.31457444     0.03190
C155        C  0.17389447  0.48778357  0.32996231    -0.12960
C156        C  0.15405101  0.48857850  0.36520411     0.00690
C157        C  0.14740435  0.45452875  0.38511658    -0.11490
C158        C  0.16044174  0.41905392  0.37084367     0.03180
C159        C  0.18135673  0.41846678  0.33566814    -0.10910
H160        H  0.17604769  0.51405289  0.31344133     0.08780
H161        H  0.12870844  0.45562450  0.41033060     0.06300
H162        H  0.19089409  0.39118836  0.32372102     0.06150
C163        C  0.30677485  0.17513120  0.01351128     0.03190
C164        C  0.32192056  0.16008255  0.04806445    -0.12960
C165        C  0.33858940  0.12314219  0.04810519     0.00690
C166        C  0.33772727  0.10131638  0.01425620    -0.11490
C167        C  0.32891711  0.11835700  0.97926854     0.03180
C168        C  0.31180156  0.15470996  0.97883115    -0.10910
H169        H  0.32180510  0.17747431  0.07405427     0.08780
H170        H  0.34994404  0.07251738  0.01400862     0.06300
H171        H  0.30475161  0.16807604  0.95163221     0.06150
C172        C  0.30259868  0.75654786  0.02252677     0.03190
C173        C  0.31020382  0.77500336  0.05820896    -0.12960
C174        C  0.32442284  0.81322753  0.05913579     0.00690
C175        C  0.32773449  0.83323917  0.02465742    -0.11490
C176        C  0.32547674  0.81414499  0.98935530     0.03180
C177        C  0.31145317  0.77611503  0.98803890    -0.10910
H178        H  0.30663168  0.75923549  0.08479211     0.08780
H179        H  0.33828445  0.86276110  0.02506410     0.06300
H180        H  0.30876098  0.76141304  0.96055099     0.06150
O181        O  0.06371675  0.14136261  0.42877647    -0.80070
O182        O  0.90359575  0.14467809  0.58284654    -0.81620
O183        O  0.02835749  0.09855866  0.55574222    -0.78640
O184        O  0.93945816  0.09530797  0.46172580    -0.77030
O185        O  0.91059617  0.14112307  0.42426205    -0.78820
O186        O  0.05610919  0.14677989  0.59226920    -0.79750
O187        O  0.93568731  0.09763268  0.54910088    -0.81080
O188        O  0.03084262  0.09516768  0.46306392    -0.81370
Eu189      Eu  0.98450638  0.12744193  0.50743292     2.39200
O190        O  0.92847752  0.16601530  0.50495881    -0.88880
O191        O  0.03902269  0.16810982  0.50868236    -0.92480
C192        C  0.05589007  0.10616719  0.43734935     1.02210
C193        C  0.91028600  0.10916691  0.57404932     1.02030
C194        C  0.05031925  0.11114701  0.58342524     1.01970
C195        C  0.91679914  0.10612088  0.43411773     0.99830
H196        H  0.98018848  0.15229698  0.58722463     0.29580
O197        O  0.98157436  0.16706369  0.56379587    -1.01260
H198        H  0.98642850  0.14816963  0.42776734     0.29610
O199        O  0.98573915  0.16431894  0.45050912    -1.03810
O200        O  0.90223220  0.26948420  0.57768623    -0.81030
O201        O  0.07220073  0.26350129  0.43116470    -0.80570
O202        O  0.00811897  0.23010471  0.62842095    -0.79010
O203        O  0.86111887  0.19540553  0.47041262    -0.82350
O204        O  0.95187604  0.21059692  0.38285440    -0.80200
O205        O  0.10552073  0.19951452  0.54270374    -0.78850
O206        O  0.02902652  0.31517288  0.55026384    -0.80370
O207        O  0.93747895  0.31281486  0.45546406    -0.82300
O208        O  0.06246797  0.26904926  0.58341404    -0.79030
O209        O  0.90213709  0.26352686  0.42790871    -0.81710
O210        O  0.94183912  0.22494417  0.62585640    -0.77440
O211        O  0.10790784  0.19698711  0.47667357    -0.77480
O212        O  0.01875630  0.21346307  0.38429178    -0.77120
O213        O  0.85958087  0.20029057  0.53590675    -0.80620
O214        O  0.94317583  0.31424868  0.55013991    -0.80040
O215        O  0.03850709  0.31242143  0.46052372    -0.78370
Eu216      Eu  0.92642415  0.20690891  0.55871100     2.39770
Eu217      Eu  0.04140272  0.20397489  0.45155435     2.39570
Eu218      Eu  0.03674562  0.20772529  0.56399414     2.38400
Eu219      Eu  0.92974232  0.20348415  0.44938944     2.39880
Eu220      Eu  0.98547065  0.28433199  0.50160007     2.39790
O221        O  0.98587080  0.24304054  0.44811691    -0.92790
O222        O  0.98195695  0.24582246  0.55673165    -0.91680
C223        C  0.91604061  0.30367231  0.57375042     1.02380
C224        C  0.06619308  0.29931442  0.43842653     1.01100
C225        C  0.97347182  0.23503202  0.64354967     1.00490
C226        C  0.84301293  0.19486598  0.50310873     1.02510
C227        C  0.98546827  0.21546903  0.36678884     1.01420
C228        C  0.12377439  0.19544271  0.51024769     1.00270
C229        C  0.05418410  0.30409745  0.57574381     1.00330
C230        C  0.90992376  0.29934980  0.43336037     1.02940
H231        H  0.06420220  0.25921081  0.50721478     0.30310
O232        O  0.04047721  0.24404095  0.50651257    -1.04950
H233        H  0.90504102  0.26065450  0.50228637     0.32360
O234        O  0.92832565  0.24507013  0.50285370    -1.07510
C235        C  0.67930745  0.15228111  0.51684459     0.03190
C236        C  0.65628754  0.15198382  0.48339564    -0.12960
C237        C  0.61813658  0.13781165  0.48445060     0.00690
C238        C  0.60102336  0.12902024  0.51969698    -0.11490
C239        C  0.62436252  0.12400075  0.55238053     0.03180
C240        C  0.66368083  0.13652687  0.55107326    -0.10910
H241        H  0.66907922  0.15932079  0.45581105     0.08780
H242        H  0.57103040  0.11873423  0.51974966     0.06300
H243        H  0.68277319  0.13167204  0.57532522     0.06150
C244        C  0.28592672  0.14954294  0.51228474     0.03190
C245        C  0.30070641  0.13262174  0.54590506    -0.12960
C246        C  0.33756927  0.11508257  0.54555791     0.00690
C247        C  0.35974659  0.11534377  0.51174776    -0.11490
C248        C  0.34514336  0.13068147  0.47760620     0.03180
C249        C  0.30826218  0.14855367  0.47818416    -0.10910
H250        H  0.28249777  0.13098787  0.57142682     0.08780
H251        H  0.38722995  0.09997238  0.51126733     0.06300
H252        H  0.29576618  0.15911081  0.45167230     0.06150
C253        C  0.98207437  0.26562846  0.20853532     0.03190
C254        C  0.94795840  0.27699818  0.18893009    -0.12960
C255        C  0.95061991  0.28985548  0.15043935     0.00690
C256        C  0.98661780  0.28671207  0.13160914    -0.11490
C257        C  0.02055196  0.28535817  0.15340754     0.03180
C258        C  0.01866162  0.27276808  0.19149667    -0.10910
H259        H  0.92063621  0.27850999  0.20460006     0.08780
H260        H  0.98907663  0.29521683  0.10169643     0.06300
H261        H  0.04510409  0.27105435  0.20848768     0.06150
C262        C  0.94622376  0.32475282  0.78997091     0.03190
C263        C  0.97776879  0.32908302  0.81610569    -0.12960
C264        C  0.97395929  0.34893209  0.85138135     0.00690
C265        C  0.93676962  0.36334709  0.86173036    -0.11490
C266        C  0.90588010  0.36674315  0.83425778     0.03180
C267        C  0.91070870  0.34481066  0.79943238    -0.10910
H268        H  0.00584671  0.31638177  0.80968043     0.08780
H269        H  0.93334669  0.37421088  0.89071197     0.06300
H270        H  0.88686529  0.34418761  0.77941953     0.06150
O271        O  0.03309791  0.81121858  0.45700947    -0.80070
O272        O  0.03492342  0.59430515  0.45863114    -0.81620
O273        O  0.10891026  0.71155566  0.47220546    -0.78640
O274        O  0.01909623  0.69811446  0.38198475    -0.77030
O275        O  0.95209933  0.69876102  0.38106579    -0.78820
O276        O  0.10612739  0.71538358  0.53794831    -0.79750
O277        O  0.06933030  0.64216811  0.42843797    -0.81080
O278        O  0.06375644  0.76346452  0.42259431    -0.81370
Eu279      Eu  0.04149423  0.70321166  0.44897722     2.39200
O280        O  0.98600951  0.66322170  0.44685813    -0.88880
O281        O  0.03970790  0.74407932  0.50340004    -0.92480
C282        C  0.05745811  0.79889100  0.43101112     1.02210
C283        C  0.06192379  0.60664322  0.43566755     1.02030
C284        C  0.12472382  0.71668324  0.50554709     1.01970
C285        C  0.98583826  0.69730465  0.36458574     0.99830
H286        H  0.06585730  0.65124522  0.50533325     0.29580
O287        O  0.04194721  0.66588530  0.50465178    -1.01260
H288        H  0.98572901  0.75581677  0.42419559     0.29610
O289        O  0.98493388  0.74089702  0.44752470    -1.03810
O290        O  0.95075944  0.59295281  0.55276792    -0.81030
O291        O  0.93189614  0.81062186  0.54270504    -0.80570
O292        O  0.06284994  0.64606275  0.58291463    -0.79010
O293        O  0.90337472  0.63862373  0.42753836    -0.82350
O294        O  0.90931878  0.76186650  0.41882019    -0.80200
O295        O  0.05531933  0.76914803  0.58599740    -0.78850
O296        O  0.94665741  0.70285705  0.62466398    -0.80370
O297        O  0.85881022  0.70391370  0.53619913    -0.82300
O298        O  0.01324036  0.70277085  0.62652553    -0.79030
O299        O  0.86188283  0.71374432  0.47119416    -0.81710
O300        O  0.03437465  0.59754833  0.54751848    -0.77440
O301        O  0.02544359  0.81519623  0.54954217    -0.77480
O302        O  0.94208779  0.81038654  0.45030060    -0.77120
O303        O  0.93853188  0.59307445  0.45929706    -0.80620
O304        O  0.91595900  0.63742554  0.58701141    -0.80040
O305        O  0.90010713  0.76307412  0.57631707    -0.78370
Eu306      Eu  0.98683381  0.62505750  0.50199538     2.39770
Eu307      Eu  0.98344138  0.78219317  0.50137183     2.39570
Eu308      Eu  0.03804975  0.70659885  0.55937479     2.38400
Eu309      Eu  0.92894389  0.70117417  0.44768402     2.39880
Eu310      Eu  0.92714048  0.70119169  0.55700765     2.39790
O311        O  0.92893531  0.74060467  0.50222432    -0.92790
O312        O  0.98431788  0.66516970  0.55645335    -0.91680
C313        C  0.92948656  0.60303089  0.58165071     1.02380
C314        C  0.90592159  0.79846262  0.56705200     1.01100
C315        C  0.05755956  0.61043296  0.57406482     1.00490
C316        C  0.91133162  0.60342391  0.43565794     1.02510
C317        C  0.91861160  0.79753311  0.42388841     1.01420
C318        C  0.04765347  0.80424015  0.57747213     1.00270
C319        C  0.97925917  0.70141330  0.64300629     1.00330
C320        C  0.84348857  0.71322559  0.50374379     1.02940
H321        H  0.97950573  0.75993546  0.58023262     0.30310
O322        O  0.98112636  0.74379288  0.55753228    -1.04950
H323        H  0.90502139  0.64455414  0.50299413     0.32360
O324        O  0.92789874  0.66095952  0.50231815    -1.07510
C325        C  0.68907686  0.77951877  0.51464705     0.03190
C326        C  0.67010827  0.79370382  0.48169282    -0.12960
C327        C  0.63867629  0.81947586  0.48539344     0.00690
C328        C  0.62643693  0.83020414  0.52228651    -0.11490
C329        C  0.64402083  0.81558402  0.55516656     0.03180
C330        C  0.67519630  0.78975720  0.55152603    -0.10910
H331        H  0.68062804  0.78538908  0.45342037     0.08780
H332        H  0.60338490  0.85127411  0.52578412     0.06300
H333        H  0.69000633  0.77962704  0.57701306     0.06150
C334        C  0.28291166  0.77684723  0.50688909     0.03190
C335        C  0.29805415  0.79372172  0.47328754    -0.12960
C336        C  0.33294295  0.81495774  0.47498670     0.00690
C337        C  0.35171875  0.82030560  0.51021850    -0.11490
C338        C  0.33784517  0.80304578  0.54410178     0.03180
C339        C  0.30392383  0.77999065  0.54166598    -0.10910
H340        H  0.28226697  0.79134089  0.44637233     0.08780
H341        H  0.37699345  0.83924016  0.51103323     0.06300
H342        H  0.29294027  0.76506674  0.56666070     0.06150
C343        C  0.98174074  0.66855948  0.20145431     0.03190
C344        C  0.01533696  0.65471490  0.18285080    -0.12960
C345        C  0.01229779  0.63626457  0.14723161     0.00690
C346        C  0.97627658  0.63456230  0.12877641    -0.11490
C347        C  0.94217021  0.64798484  0.14671635     0.03180
C348        C  0.94537105  0.66671277  0.18265756    -0.10910
H349        H  0.04293256  0.65430453  0.19810102     0.08780
H350        H  0.97439700  0.61832195  0.10206349     0.06300
H351        H  0.91945216  0.67677732  0.19746780     0.06150
C352        C  0.98689328  0.65308844  0.80342189     0.03190
C353        C  0.02395783  0.64322610  0.81841419    -0.12960
C354        C  0.02750410  0.63093120  0.85662758     0.00690
C355        C  0.99432874  0.62713923  0.87935691    -0.11490
C356        C  0.95769657  0.62693420  0.86257952     0.03180
C357        C  0.95341439  0.64293378  0.82566466    -0.10910
H358        H  0.04979702  0.64377088  0.80040592     0.08780
H359        H  0.99723287  0.61741473  0.90883333     0.06300
H360        H  0.92425411  0.64605643  0.81436308     0.06150
O361        O  0.67180834  0.53695662  0.08232487    -0.80070
O362        O  0.68924395  0.37355830  0.93255653    -0.81620
O363        O  0.62793692  0.49750044  0.95464642    -0.78640
O364        O  0.63277181  0.41468196  0.05105555    -0.77030
O365        O  0.68141201  0.38503614  0.08477671    -0.78820
O366        O  0.67384315  0.53661945  0.92693692    -0.79750
O367        O  0.63813324  0.40563064  0.96122310    -0.81080
O368        O  0.62780506  0.50459625  0.04449814    -0.81370
Eu369      Eu  0.66303653  0.45753505  0.00229282     2.39200
O370        O  0.70696385  0.40467185  0.00293906    -0.88880
O371        O  0.69637567  0.51694251  0.00330658    -0.92480
C372        C  0.63679811  0.52985129  0.07082359     1.02210
C373        C  0.65233815  0.37899447  0.93927769     1.02030
C374        C  0.63863513  0.52475757  0.93161413     1.01970
C375        C  0.64518779  0.39154698  0.07740990     0.99830
H376        H  0.68735666  0.45640212  0.92447777     0.29580
O377        O  0.70455506  0.45782008  0.94641449    -1.01260
H378        H  0.68413374  0.46062661  0.08130620     0.29610
O379        O  0.70056503  0.46096039  0.05866573    -1.03810
O380        O  0.82952560  0.39586239  0.94637242    -0.81030
O381        O  0.79146483  0.55480107  0.08240926    -0.80570
O382        O  0.74099682  0.49161129  0.87876878    -0.79010
O383        O  0.73665680  0.34115057  0.03788228    -0.82350
O384        O  0.74608939  0.42986481  0.12705894    -0.80200
O385        O  0.72160949  0.58302690  0.97156921    -0.78850
O386        O  0.84723615  0.51547869  0.96477576    -0.80370
O387        O  0.85152697  0.42399171  0.05906286    -0.82300
O388        O  0.80000087  0.54366612  0.92869141    -0.79030
O389        O  0.80427534  0.38429220  0.08285569    -0.81710
O390        O  0.73198315  0.42724796  0.88349115    -0.77440
O391        O  0.72379996  0.58386172  0.03705977    -0.77480
O392        O  0.74476237  0.49583031  0.12695394    -0.77120
O393        O  0.73897128  0.34070738  0.97210635    -0.80620
O394        O  0.86863947  0.44473750  0.96598017    -0.80040
O395        O  0.84417204  0.52336588  0.05710082    -0.78370
Eu396      Eu  0.75128962  0.40690543  0.95089667     2.39770
Eu397      Eu  0.73612911  0.51854931  0.05944715     2.39570
Eu398      Eu  0.73739664  0.51663959  0.94929935     2.38400
Eu399      Eu  0.74374679  0.40868408  0.05957077     2.39880
Eu400      Eu  0.82106045  0.47058452  0.01345607     2.39790
O401        O  0.78051264  0.46702006  0.06702823    -0.92790
O402        O  0.75546249  0.46369165  0.98928308    -0.91680
C403        C  0.86023580  0.41880530  0.94093313     1.02380
C404        C  0.82825327  0.55076733  0.07714884     1.01100
C405        C  0.74195350  0.45696865  0.86357710     1.00490
C406        C  0.73384490  0.32414187  0.00481365     1.02510
C407        C  0.74804703  0.46292978  0.14408247     1.01420
C408        C  0.71843047  0.60050096  0.00445994     1.00270
C409        C  0.83573101  0.53926825  0.93881274     1.00330
C410        C  0.84005840  0.39456569  0.07913717     1.02940
H411        H  0.79171657  0.54811061  0.00493664     0.30310
O412        O  0.77843259  0.52349105  0.00470809    -1.04950
H413        H  0.80681663  0.38736890  0.00937479     0.32360
O414        O  0.78974126  0.40929754  0.00728720    -1.07510
C415        C  0.89122927  0.44440550  0.74908926     0.03190
C416        C  0.88103103  0.41369549  0.72494826    -0.12960
C417        C  0.88145461  0.41792051  0.68535090     0.00690
C418        C  0.88856663  0.45372819  0.66946304    -0.11490
C419        C  0.89899450  0.48507972  0.69280920     0.03180
C420        C  0.90047024  0.48059984  0.73310901    -0.10910
H421        H  0.87365035  0.38594764  0.73659298     0.08780
H422        H  0.88948446  0.45636005  0.63834585     0.06300
H423        H  0.90796850  0.50480537  0.75152329     0.06150
C424        C  0.79426707  0.45066456  0.30437538     0.03190
C425        C  0.79958557  0.41376721  0.32023549    -0.12960
C426        C  0.81469427  0.41002029  0.35761686     0.00690
C427        C  0.82233465  0.44294064  0.37959340    -0.11490
C428        C  0.82346155  0.47913054  0.36235867     0.03180
C429        C  0.80772829  0.48318097  0.32517856    -0.10910
H430        H  0.79456455  0.38827509  0.30272827     0.08780
H431        H  0.83329053  0.43964521  0.40863154     0.06300
H432        H  0.80775486  0.51118713  0.31162234     0.06150
C433        C  0.67113669  0.16877879  0.01061414     0.03190
C434        C  0.66805598  0.15239643  0.04735713    -0.12960
C435        C  0.65672344  0.11394286  0.05108164     0.00690
C436        C  0.65216461  0.09117329  0.01810506    -0.11490
C437        C  0.64518007  0.10842215  0.98245826     0.03180
C438        C  0.65712358  0.14748994  0.97847271    -0.10910
H439        H  0.67254679  0.16999808  0.07287677     0.08780
H440        H  0.64838619  0.06058404  0.02188921     0.06300
H441        H  0.65515893  0.16175814  0.95103622     0.06150
C442        C  0.67242086  0.76376655  0.01521706     0.03190
C443        C  0.67402262  0.78680513  0.04916368    -0.12960
C444        C  0.65606635  0.82319345  0.05066939     0.00690
C445        C  0.64250887  0.83966533  0.01691990    -0.11490
C446        C  0.64194992  0.81862082  0.98282551     0.03180
C447        C  0.65522194  0.78051950  0.98222355    -0.10910
H448        H  0.68763295  0.77681275  0.07509217     0.08780
H449        H  0.62832704  0.86755336  0.01796908     0.06300
H450        H  0.65018280  0.76391339  0.95626501     0.06150
O451        O  0.39663122  0.03658364  0.82561990    -0.80070
O452        O  0.55956955  0.88691261  0.83284136    -0.81620
O453        O  0.42746967  0.92125325  0.87597884    -0.78640
O454        O  0.52597705  0.00677937  0.87393721    -0.77030
O455        O  0.56098383  0.03624637  0.82653754    -0.78820
O456        O  0.39296853  0.88756010  0.83049763    -0.79750
O457        O  0.52244919  0.91714155  0.87888654    -0.81080
O458        O  0.43280303  0.00889545  0.87334108    -0.81370
Eu459      Eu  0.47768671  0.96143960  0.84516956     2.39200
O460        O  0.53450525  0.96029512  0.80698772    -0.88880
O461        O  0.42193644  0.95952356  0.80523541    -0.92480
C462        C  0.40649089  0.03232939  0.86105721     1.02210
C463        C  0.55012813  0.89418437  0.86800538     1.02030
C464        C  0.40023578  0.89742140  0.86560709     1.01970
C465        C  0.55316490  0.03011893  0.86216592     0.99830
H466        H  0.47708259  0.88299156  0.82588811     0.29580
O467        O  0.47748659  0.90450534  0.80842782    -1.01260
H468        H  0.47728829  0.03730808  0.82045951     0.29610
O469        O  0.47723369  0.01457461  0.80432502    -1.03810
O470        O  0.55816285  0.87688106  0.70949076    -0.81030
O471        O  0.40233268  0.03509221  0.70066008    -0.80570
O472        O  0.44483964  0.83590990  0.77777776    -0.79010
O473        O  0.60091840  0.99133560  0.75882662    -0.82350
O474        O  0.51016461  0.08071080  0.77225110    -0.80200
O475        O  0.35457664  0.92434964  0.75883196    -0.78850
O476        O  0.43924826  0.90480800  0.65860630    -0.80370
O477        O  0.52464657  0.00190286  0.65774411    -0.82300
O478        O  0.40548394  0.87310171  0.70589837    -0.79030
O479        O  0.55485694  0.03827408  0.70380623    -0.81710
O480        O  0.51177182  0.83584754  0.77582821    -0.77440
O481        O  0.35346481  0.99027689  0.75887345    -0.77480
O482        O  0.44332964  0.08139944  0.76991561    -0.77120
O483        O  0.60210110  0.92542777  0.76174594    -0.80620
O484        O  0.53040685  0.91193413  0.66109937    -0.80040
O485        O  0.43440838  0.99890786  0.65547497    -0.78370
Eu486      Eu  0.53402031  0.90337519  0.76983111     2.39770
Eu487      Eu  0.42185048  0.01316716  0.76423882     2.39570
Eu488      Eu  0.42228484  0.90267292  0.76801311     2.38400
Eu489      Eu  0.53347131  0.01394472  0.76594782     2.39880
Eu490      Eu  0.47990883  0.95530432  0.68863601     2.39790
O491        O  0.47846097  0.01272043  0.72552737    -0.92790
O492        O  0.47896235  0.90131413  0.72954472    -0.91680
C493        C  0.55435196  0.88629820  0.67400064     1.02380
C494        C  0.40984686  0.02536834  0.66555789     1.01100
C495        C  0.47830119  0.81888152  0.77972405     1.00490
C496        C  0.61841935  0.95855253  0.75616287     1.02510
C497        C  0.47692698  0.09815842  0.77423564     1.01420
C498        C  0.33673711  0.95690894  0.75584349     1.00270
C499        C  0.41538412  0.87842030  0.67045485     1.00330
C500        C  0.54829827  0.02909180  0.66843281     1.02940
H501        H  0.40105548  0.95516332  0.70966754     0.30310
O502        O  0.42319526  0.95623768  0.72681095    -1.04950
H503        H  0.55655036  0.95719214  0.71249482     0.32360
O504        O  0.53391414  0.95721998  0.72909105    -1.07510
C505        C  0.48410808  0.65788917  0.82365439     0.03190
C506        C  0.44981966  0.63911175  0.83651402    -0.12960
C507        C  0.45156933  0.60167390  0.85152939     0.00690
C508        C  0.48711545  0.58209519  0.85016475    -0.11490
C509        C  0.52187581  0.60197897  0.84328505     0.03180
C510        C  0.52043476  0.63964663  0.82878254    -0.10910
H511        H  0.42227736  0.65435142  0.83654028     0.08780
H512        H  0.48847144  0.55264360  0.86021135     0.06300
H513        H  0.54736358  0.65544233  0.82384850     0.06150
C514        C  0.48289560  0.25592720  0.83368287     0.03190
C515        C  0.44814861  0.27614931  0.84255368    -0.12960
C516        C  0.44940723  0.31156628  0.86295582     0.00690
C517        C  0.48592902  0.32543779  0.87543580    -0.11490
C518        C  0.52069754  0.30686301  0.86526614     0.03180
C519        C  0.51911060  0.27314293  0.84304050    -0.10910
H520        H  0.42018775  0.26367972  0.83476292     0.08780
H521        H  0.48749586  0.35034001  0.89435104     0.06300
H522        H  0.54618929  0.25901045  0.83529909     0.06150
C523        C  0.17748684  0.95462705  0.69753990     0.03190
C524        C  0.16106182  0.99021939  0.68693022    -0.12960
C525        C  0.12496121  0.99137487  0.66780692     0.00690
C526        C  0.10524916  0.95711099  0.65941824    -0.11490
C527        C  0.12156841  0.92171134  0.66849322     0.03180
C528        C  0.15676708  0.92035763  0.68891713    -0.10910
H529        H  0.17706345  0.01680550  0.69183877     0.08780
H530        H  0.07876185  0.95782441  0.64231327     0.06300
H531        H  0.16893006  0.89257413  0.69597275     0.06150
C532        C  0.76301487  0.95345208  0.67035803     0.03190
C533        C  0.78206327  0.98796745  0.65982587    -0.12960
C534        C  0.81137491  0.98761185  0.63157773     0.00690
C535        C  0.82076191  0.95255357  0.61401837    -0.11490
C536        C  0.80804424  0.91767480  0.62941596     0.03180
C537        C  0.77784423  0.91792386  0.65692901    -0.10910
H538        H  0.77388627  0.01471460  0.67377827     0.08780
H539        H  0.84193552  0.95201434  0.59070802     0.06300
H540        H  0.76609612  0.89106541  0.66774016     0.06150
C541        C  0.47841686  0.77735687  0.78961232    -0.00100
C542        C  0.49828747  0.75072386  0.76614168    -0.11970
C543        C  0.49979728  0.71149634  0.77606673     0.02140
C544        C  0.48233508  0.69866049  0.81068493    -0.00180
C545        C  0.46268084  0.72541119  0.83397463    -0.11910
C546        C  0.46028578  0.76412245  0.82361794     0.02030
H547        H  0.51208880  0.76046373  0.73977677     0.15010
H548        H  0.44948587  0.71609918  0.86080935     0.15010
C549        C  0.44007230  0.78971087  0.84945948     0.36660
C550        C  0.51782550  0.68475043  0.74953969     0.36560
N551        N  0.42344220  0.80931031  0.87082126    -0.43680
N552        N  0.53193886  0.66320930  0.72812910    -0.43680
C553        C  0.47811191  0.13929180  0.78680509    -0.00100
C554        C  0.50420804  0.14898719  0.81645834    -0.11970
C555        C  0.50553900  0.18604297  0.83242118     0.02140
C556        C  0.48155854  0.21563038  0.81757689    -0.00180
C557        C  0.45522628  0.20592917  0.78783498    -0.11910
C558        C  0.45289605  0.16809526  0.77288349     0.02030
H559        H  0.52264944  0.12683934  0.82860328     0.15010
H560        H  0.43636227  0.22793741  0.77619285     0.15010
C561        C  0.42482548  0.15986506  0.74302678     0.36660
C562        C  0.53012044  0.19172516  0.86574649     0.36560
N563        N  0.40207689  0.15357761  0.71919441    -0.43680
N564        N  0.54993216  0.19599334  0.89239050    -0.43680
C565        C  0.29491067  0.95533991  0.74439677    -0.00100
C566        C  0.28412258  0.92822137  0.71614770    -0.11970
C567        C  0.24652901  0.92768233  0.70043110     0.02140
C568        C  0.21769364  0.95340918  0.71431578    -0.00180
C569        C  0.22825388  0.98004673  0.74323035    -0.11910
C570        C  0.26652253  0.98169773  0.75774123     0.02030
H571        H  0.30591703  0.90867933  0.70457047     0.15010
H572        H  0.20665162  0.00013616  0.75413651     0.15010
C573        C  0.27559864  0.01084959  0.78609185     0.36660
C574        C  0.23962713  0.90266017  0.66782734     0.36560
N575        N  0.28218993  0.03472500  0.80855668    -0.43680
N576        N  0.23387989  0.88282604  0.64155621    -0.43680
C577        C  0.65793519  0.95916118  0.73894325    -0.00100
C578        C  0.66268444  0.98224131  0.70628652    -0.11970
C579        C  0.69591647  0.97956295  0.68326372     0.02140
C580        C  0.72694731  0.95534504  0.69413977    -0.00180
C581        C  0.72276104  0.93261806  0.72731090    -0.11910
C582        C  0.68819343  0.93382907  0.74934869     0.02030
H583        H  0.63890228  0.00048382  0.69692554     0.15010
H584        H  0.74626467  0.91365241  0.73572804     0.15010
C585        C  0.68449972  0.90911003  0.78238692     0.36660
C586        C  0.69533172  0.99879197  0.64650550     0.36560
N587        N  0.68154088  0.88922052  0.80883878    -0.43680
N588        N  0.69392894  0.01346432  0.61674135    -0.43680
C589        C  0.61985089  0.83468710  0.95055668    -0.00100
C590        C  0.57913667  0.83102031  0.95158006    -0.11970
C591        C  0.55584805  0.85059192  0.92534856     0.02140
C592        C  0.57333458  0.87445652  0.89748558    -0.00180
C593        C  0.61430368  0.87742394  0.89591740    -0.11910
C594        C  0.63764387  0.85801451  0.92248226     0.02030
H595        H  0.56550307  0.81329135  0.97351084     0.15010
H596        H  0.62799789  0.89540587  0.87427092     0.15010
C597        C  0.67952255  0.86306400  0.92102162     0.36660
C598        C  0.51437034  0.84401504  0.92678200     0.36560
N599        N  0.71309240  0.86716964  0.91980871    -0.43680
N600        N  0.48130531  0.83745371  0.92860240    -0.43680
C601        C  0.62248328  0.08685848  0.95154398    -0.00100
C602        C  0.62713566  0.09735131  0.91264575    -0.11970
C603        C  0.60456450  0.08046614  0.88318527     0.02140
C604        C  0.57739421  0.05065949  0.89175743    -0.00180
C605        C  0.57331766  0.03952460  0.93009872    -0.11910
C606        C  0.59426191  0.05734039  0.95972874     0.02030
H607        H  0.64846638  0.11903340  0.90473963     0.15010
H608        H  0.55283457  0.01672421  0.93741983     0.15010
C609        C  0.58399230  0.04389699  0.99766458     0.36660
C610        C  0.60951014  0.09542652  0.84477371     0.36560
N611        N  0.57499907  0.03114744  0.02710201    -0.43680
N612        N  0.61337953  0.10769865  0.81409659    -0.43680
C613        C  0.86914540  0.42911171  0.89878792    -0.00100
C614        C  0.91183126  0.43858076  0.87496180    -0.11970
C615        C  0.91932238  0.44194269  0.82544180     0.02140
C616        C  0.88398724  0.43902000  0.79014195    -0.00180
C617        C  0.83600011  0.43185353  0.80185857    -0.11910
C618        C  0.82760108  0.42700650  0.87511268     0.02030
H619        H  0.93756498  0.44171937  0.89278545     0.15010
H620        H  0.81449946  0.43493410  0.77884485     0.15010
C621        C  0.80392923  0.44783996  0.90404080     0.36660
C622        C  0.95860828  0.44982943  0.81284193     0.36560
N623        N  0.79106570  0.46657297  0.92824615    -0.43680
N624        N  0.99005180  0.45656991  0.80246351    -0.43680
C625        C  0.75808611  0.46268712  0.18565148    -0.00100
C626        C  0.73285871  0.44510632  0.21234547    -0.11970
C627        C  0.74386430  0.44097176  0.25114635     0.02140
C628        C  0.78056743  0.45496535  0.26388244    -0.00180
C629        C  0.80566869  0.47239587  0.23706917    -0.11910
C630        C  0.79516645  0.47550742  0.19825016     0.02030
H631        H  0.70482536  0.43401492  0.20271648     0.15010
H632        H  0.83445374  0.48197389  0.24616309     0.15010
C633        C  0.82472871  0.48772612  0.17121371     0.36660
C634        C  0.71705125  0.42233615  0.27731429     0.36560
N635        N  0.84908368  0.49624929  0.14969053    -0.43680
N636        N  0.69560750  0.40724609  0.29824279    -0.43680
C637        C  0.55791566  0.32023552  0.88281208    -0.00100
C638        C  0.56060047  0.32011671  0.92305444    -0.11970
C639        C  0.59258869  0.33675775  0.94183272     0.02140
C640        C  0.62312592  0.35372997  0.92029082    -0.00180
C641        C  0.62174901  0.35173507  0.87988637    -0.11910
C642        C  0.58928929  0.33529094  0.86101545     0.02030
H643        H  0.53687506  0.30799133  0.93995565     0.15010
H644        H  0.64476069  0.36522203  0.86310912     0.15010
C645        C  0.58752608  0.33665774  0.81955366     0.36660
C646        C  0.59287033  0.33666497  0.98337323     0.36560
N647        N  0.58606571  0.33786382  0.78630524    -0.43680
N648        N  0.59270682  0.33622566  0.01665731    -0.43680
C649        C  0.72028640  0.28362784  0.00407032    -0.00100
C650        C  0.68438887  0.27531551  0.98624800    -0.11970
C651        C  0.66755864  0.23845160  0.98817686     0.02140
C652        C  0.68759232  0.20849180  0.00691869    -0.00180
C653        C  0.72395223  0.21680607  0.02416577    -0.11910
C654        C  0.74012420  0.25404242  0.02324764     0.02030
H655        H  0.66854503  0.29825553  0.97231042     0.15010
H656        H  0.73961645  0.19413159  0.03877507     0.15010
C657        C  0.77714540  0.26122901  0.04186180     0.36660
C658        C  0.62847340  0.23311673  0.97349412     0.36560
N659        N  0.80684700  0.26707601  0.05671035    -0.43680
N660        N  0.59696371  0.22910817  0.96209037    -0.43680
C661        C  0.60921070  0.54429804  0.90817184    -0.00100
C662        C  0.59831382  0.58182579  0.91842847    -0.11970
C663        C  0.57216773  0.60252256  0.89571915     0.02140
C664        C  0.55734521  0.58596840  0.86136666    -0.00180
C665        C  0.56980176  0.54897557  0.85029909    -0.11910
C666        C  0.59566799  0.52816656  0.87334042     0.02030
H667        H  0.60960397  0.59462904  0.94476083     0.15010
H668        H  0.55793745  0.53572993  0.82445565     0.15010
C669        C  0.60810383  0.49042679  0.86073625     0.36660
C670        C  0.55858665  0.63931352  0.90996526     0.36560
N671        N  0.61828033  0.46023878  0.85067853    -0.43680
N672        N  0.54749899  0.66865533  0.92150389    -0.43680
C673        C  0.68594404  0.72207408  0.01378262    -0.00100
C674        C  0.69598084  0.70547406  0.97774138    -0.11970
C675        C  0.70406463  0.66604876  0.97333626     0.02140
C676        C  0.70731924  0.64231738  0.00603992    -0.00180
C677        C  0.69867066  0.65883711  0.04215337    -0.11910
C678        C  0.68680208  0.69723840  0.04627815     0.02030
H679        H  0.69676444  0.72292768  0.95208875     0.15010
H680        H  0.69955223  0.64113500  0.06774195     0.15010
C681        C  0.67418306  0.70831238  0.08442517     0.36660
C682        C  0.70580909  0.65076792  0.93462478     0.36560
N683        N  0.66475148  0.71598142  0.11557126    -0.43680
N684        N  0.70591780  0.63870091  0.90347479    -0.43680
C685        C  0.92620408  0.60480841  0.88225080    -0.00100
C686        C  0.88844778  0.61992034  0.88477590    -0.11970
C687        C  0.85844714  0.59941951  0.90319097     0.02140
C688        C  0.86598995  0.56285444  0.91940745    -0.00180
C689        C  0.90398255  0.54839448  0.91789714    -0.11910
C690        C  0.93369708  0.56825901  0.89901153     0.02030
H691        H  0.88250869  0.64809087  0.87290594     0.15010
H692        H  0.91016577  0.52020383  0.92967820     0.15010
C693        C  0.96989954  0.54758955  0.89359429     0.36660
C694        C  0.82110755  0.61795415  0.90702086     0.36560
N695        N  0.99816369  0.52984652  0.88960898    -0.43680
N696        N  0.79149934  0.63351716  0.91021526    -0.43680
C697        C  0.85335176  0.58054915  0.09478747    -0.00100
C698        C  0.85115413  0.58713131  0.13459592    -0.11970
C699        C  0.87717562  0.61258701  0.15283056     0.02140
C700        C  0.90440452  0.63382511  0.13048197    -0.00180
C701        C  0.90129690  0.63194899  0.09011315    -0.11910
C702        C  0.87738204  0.60449580  0.07229330     0.02030
H703        H  0.83058629  0.57071663  0.15178642     0.15010
H704        H  0.92078337  0.64919173  0.07245183     0.15010
C705        C  0.87873057  0.60118284  0.03096202     0.36660
C706        C  0.87697984  0.61361165  0.19437559     0.36560
N707        N  0.88045445  0.59910152  0.99779104    -0.43680
N708        N  0.87650448  0.61438053  0.22769214    -0.43680
C709        C  0.35831991  0.81259277  0.58119020    -0.00100
C710        C  0.39908231  0.81876752  0.57987528    -0.11970
C711        C  0.41849903  0.83922585  0.60891911     0.02140
C712        C  0.39744836  0.85274174  0.64118709    -0.00180
C713        C  0.35808194  0.84200309  0.64526808    -0.11910
C714        C  0.33841078  0.82198642  0.61590196     0.02030
H715        H  0.41569358  0.80932765  0.55492612     0.15010
H716        H  0.34208290  0.85070465  0.67087829     0.15010
C717        C  0.29811442  0.81196813  0.62294276     0.36660
C718        C  0.45995956  0.84606808  0.60457636     0.36560
N719        N  0.26625196  0.80305815  0.62994530    -0.43680
N720        N  0.49315508  0.85141089  0.60076460    -0.43680
C721        C  0.62990168  0.83091073  0.59238614    -0.00100
C722        C  0.63143092  0.87103600  0.59752454    -0.12690
C723        C  0.60686322  0.88941058  0.62385575     0.02140
C724        C  0.58104575  0.86745597  0.64656281    -0.00180
C725        C  0.58227491  0.82705225  0.64429447    -0.11910
C726        C  0.60615195  0.80864375  0.61695933     0.02030
H727        H  0.64970494  0.88828208  0.57865645     0.15010
H728        H  0.56320570  0.81001927  0.66255471     0.15010
C729        C  0.60379346  0.76731822  0.61274224     0.36660
C730        C  0.60823234  0.93086640  0.62651466     0.36560
N731        N  0.60198567  0.73417590  0.60932656    -0.43680
N732        N  0.60934634  0.96410652  0.62844144    -0.43680
C733        C  0.84580617  0.51098058  0.38136056    -0.00100
C734        C  0.83028562  0.54829975  0.38216738    -0.11970
C735        C  0.85072633  0.57899104  0.39947132     0.02140
C736        C  0.88776871  0.57256721  0.41662701    -0.00180
C737        C  0.90315277  0.53529793  0.41560559    -0.11910
C738        C  0.88307620  0.50486886  0.39814447     0.02030
H739        H  0.80183194  0.55345324  0.36957793     0.15010
H740        H  0.93164587  0.52980545  0.42799370     0.15010
C741        C  0.90276627  0.46817308  0.39736531     0.36660
C742        C  0.83232492  0.61634081  0.39962334     0.36560
N743        N  0.91927759  0.43919033  0.39792274    -0.43680
N744        N  0.81749506  0.64623005  0.39954966    -0.43680
C745        C  0.98629866  0.69202836  0.32272873    -0.00100
C746        C  0.99900308  0.65656769  0.30829809    -0.11970
C747        C  0.99718550  0.64841356  0.26901233     0.02140
C748        C  0.98354118  0.67668803  0.24321471    -0.00180
C749        C  0.97090382  0.71234025  0.25769660    -0.11910
C750        C  0.97207778  0.72013696  0.29733011     0.02030
H751        H  0.00913390  0.63466814  0.32800652     0.15010
H752        H  0.96025899  0.73401556  0.23805636     0.15010
C753        C  0.95941873  0.75729901  0.31119945     0.36660
C754        C  0.00767220  0.61010298  0.25621583     0.36560
N755        N  0.94942395  0.78723040  0.32210656    -0.43680
N756        N  0.01602767  0.57947717  0.24582696    -0.43680
C757        C  0.88082838  0.82713868  0.58618255    -0.00100
C758        C  0.84008268  0.82112176  0.58758723    -0.11970
C759        C  0.81521248  0.84919266  0.60341042     0.02140
C760        C  0.83141094  0.88313516  0.61924751    -0.00180
C761        C  0.87236604  0.88717044  0.62074552    -0.11910
C762        C  0.89694197  0.86026409  0.60351305     0.02030
H763        H  0.82758902  0.79528566  0.57478264     0.15010
H764        H  0.88522885  0.91275866  0.63373343     0.15010
C765        C  0.93851915  0.86775826  0.60360379     0.36660
C766        C  0.77349201  0.84357481  0.60116898     0.36560
N767        N  0.97172827  0.87422463  0.60341509    -0.43680
N768        N  0.73997815  0.83929939  0.59961185    -0.43680
C769        C  0.80319664  0.72851465  0.50453234    -0.00100
C770        C  0.77187558  0.70610800  0.51829940    -0.11970
C771        C  0.73410174  0.72180301  0.52150676     0.02140
C772        C  0.72742003  0.76024915  0.51042510    -0.00180
C773        C  0.75877310  0.78247840  0.49697234    -0.11910
C774        C  0.79641909  0.76731997  0.49471475     0.02030
H775        H  0.77700687  0.67660710  0.52689493     0.15010
H776        H  0.75408188  0.81248856  0.48984554     0.15010
C777        C  0.82810664  0.79358949  0.48642935     0.36660
C778        C  0.70270014  0.69815137  0.53614605     0.36560
N779        N  0.85304622  0.81551763  0.48103405    -0.43680
N780        N  0.67745799  0.67926728  0.54793480    -0.43680
C781        C  0.06631706  0.83367481  0.60177113    -0.00100
C782        C  0.09697025  0.85527399  0.58621967    -0.11970
C783        C  0.11731294  0.88192322  0.60883816     0.02140
C784        C  0.10639004  0.88780572  0.64763454    -0.00180
C785        C  0.07592367  0.86588084  0.66351311    -0.11910
C786        C  0.05616927  0.83840314  0.64094252     0.02030
H787        H  0.10498097  0.85128805  0.55636732     0.15010
H788        H  0.06686401  0.87106560  0.69303183     0.15010
C789        C  0.02446638  0.81666516  0.65789278     0.36660
C790        C  0.14837651  0.90410044  0.59128479     0.36560
N791        N  0.99885147  0.79940341  0.67127806    -0.43680
N792        N  0.17324911  0.92196436  0.57735771    -0.43680
C793        C  0.16641254  0.72850844  0.50690126    -0.00100
C794        C  0.17615970  0.75950911  0.53120401    -0.11970
C795        C  0.21337718  0.77613541  0.53030610     0.02140
C796        C  0.24296052  0.75991157  0.50706313    -0.00180
C797        C  0.23366875  0.72844609  0.48307200    -0.11910
C798        C  0.19552117  0.71309195  0.48229897     0.02030
H799        H  0.15373198  0.77267842  0.54903926     0.15010
H800        H  0.25607441  0.71626161  0.46457423     0.15010
C801        C  0.18715995  0.68165800  0.45614858     0.36660
C802        C  0.21916795  0.81242968  0.55001376     0.36560
N803        N  0.18070680  0.65665020  0.43485999    -0.43680
N804        N  0.22352969  0.84208343  0.56480112    -0.43680
C805        C  0.92290096  0.57352754  0.61206554    -0.00100
C806        C  0.89385880  0.57939166  0.64034070    -0.11970
C807        C  0.88830350  0.55310659  0.67047435     0.02140
C808        C  0.91180703  0.52009759  0.67242453    -0.00180
C809        C  0.94213805  0.51531646  0.64576155    -0.11910
C810        C  0.94738840  0.54071722  0.61537192     0.02030
H811        H  0.87446140  0.60373277  0.63810747     0.15010
H812        H  0.95974829  0.48943649  0.64683725     0.15010
C813        C  0.97694159  0.53032109  0.58737475     0.36660
C814        C  0.85742698  0.55960326  0.69809866     0.36560
N815        N  0.00021139  0.52092817  0.56499397    -0.43680
N816        N  0.83296810  0.56485153  0.72058220    -0.43680
C817        C  0.97763814  0.69534260  0.68564565    -0.00100
C818        C  0.00982962  0.70574023  0.70851780    -0.11970
C819        C  0.01217173  0.69476411  0.74732605     0.02140
C820        C  0.98326780  0.67006673  0.76360717    -0.00180
C821        C  0.94996536  0.66188412  0.74114805    -0.11910
C822        C  0.94603206  0.67598045  0.70366284     0.02030
H823        H  0.03344355  0.72248414  0.69598885     0.15010
H824        H  0.92658586  0.64408875  0.75233555     0.15010
C825        C  0.90847023  0.67132889  0.68537367     0.36660
C826        C  0.04393348  0.71070270  0.76971460     0.36560
N827        N  0.87781929  0.66910215  0.67152893    -0.43680
N828        N  0.06940155  0.72364925  0.78753617    -0.43680
C829        C  0.86948474  0.39513344  0.83976211    -0.00100
C830        C  0.82470398  0.37307093  0.83333061    -0.11970
C831        C  0.78196112  0.39844653  0.83051877     0.02140
C832        C  0.77462213  0.44778899  0.83482257    -0.00180
C833        C  0.81032157  0.48263378  0.83848656    -0.11910
C834        C  0.85903510  0.47156949  0.84450653     0.02030
H835        H  0.82373013  0.34211258  0.82959226     0.15010
H836        H  0.80181425  0.51255713  0.84078055     0.15010
C837        C  0.88319020  0.50639831  0.83936873     0.36660
C838        C  0.74774537  0.37487229  0.82437549     0.36560
N839        N  0.90117989  0.53330941  0.83085390    -0.43680
N840        N  0.72026517  0.35591463  0.81947140    -0.43680
C841        C  0.86893039  0.36909069  0.09831778    -0.00100
C842        C  0.85500410  0.33636427  0.11848123    -0.11970
C843        C  0.88048365  0.30968315  0.13495291     0.02140
C844        C  0.92106337  0.31590173  0.13272456    -0.00180
C845        C  0.93476867  0.34889923  0.11304429    -0.11910
C846        C  0.90960420  0.37466423  0.09531706     0.02030
H847        H  0.82389085  0.33071191  0.12069100     0.15010
H848        H  0.96573433  0.35490223  0.11095520     0.15010
C849        C  0.92696276  0.40560308  0.07339051     0.36660
C850        C  0.86411918  0.27539122  0.15203424     0.36560
N851        N  0.94113459  0.43002252  0.05553923    -0.43680
N852        N  0.85084218  0.24790357  0.16559406    -0.43680
C853        C  0.38884214  0.04678031  0.63506280    -0.00100
C854        C  0.37426877  0.08379435  0.64371254    -0.11970
C855        C  0.35611549  0.10620413  0.61561897     0.02140
C856        C  0.35170575  0.09141689  0.57804227    -0.00180
C857        C  0.36421182  0.05368016  0.56993972    -0.11910
C858        C  0.38291647  0.03151747  0.59769015     0.02030
H859        H  0.37808401  0.09585781  0.67229025     0.15010
H860        H  0.36007313  0.04169529  0.54129153     0.15010
C861        C  0.39528522  0.99323726  0.58673922     0.36660
C862        C  0.34412617  0.14482097  0.62562322     0.36560
N863        N  0.40524335  0.96264386  0.57776367    -0.43680
N864        N  0.33448595  0.17573923  0.63374783    -0.43680
C865        C  0.56958115  0.05171454  0.63844975    -0.00100
C866        C  0.59349093  0.08304039  0.65001395    -0.11970
C867        C  0.61261940  0.10652488  0.62306495     0.02140
C868        C  0.60866603  0.09858068  0.58342222    -0.00180
C869        C  0.58699148  0.06578015  0.57214017    -0.11910
C870        C  0.56676952  0.04321243  0.59865889     0.02030
H871        H  0.59662279  0.09005121  0.68031336     0.15010
H872        H  0.58485601  0.05805884  0.54192343     0.15010
C873        C  0.54291336  0.01220337  0.58342025     0.36660
C874        C  0.63473509  0.13918091  0.63708638     0.36560
N875        N  0.52372615  0.98757494  0.57095388    -0.43680
N876        N  0.65255791  0.16511038  0.64882151    -0.43680
C877        C  0.83490216  0.37484736  0.37029732    -0.00100
C878        C  0.82003462  0.35421373  0.40170623    -0.11970
C879        C  0.84407526  0.32905606  0.42225954     0.02140
C880        C  0.88417553  0.32614425  0.41283248    -0.00180
C881        C  0.89846909  0.34535048  0.38042657    -0.11910
C882        C  0.87406587  0.36896658  0.35872702     0.02030
H883        H  0.79014442  0.35889828  0.41102527     0.15010
H884        H  0.92870201  0.34197790  0.37202509     0.15010
C885        C  0.89063347  0.38930210  0.32633923     0.36660
C886        C  0.82720136  0.30686087  0.45319882     0.36560
N887        N  0.90378763  0.40582835  0.30050889    -0.43680
N888        N  0.81365346  0.28857343  0.47760306    -0.43680
C889        C  0.98518233  0.22777928  0.32615264    -0.00100
C890        C  0.97715360  0.20111914  0.29662203    -0.11970
C891        C  0.97494928  0.21310312  0.25810064     0.02140
C892        C  0.98051848  0.25231525  0.24891222    -0.00180
C893        C  0.98769476  0.27897264  0.27854224    -0.11910
C894        C  0.98963840  0.26709969  0.31692131     0.02030
H895        H  0.97274062  0.17101844  0.30364463     0.15010
H896        H  0.99197008  0.30912305  0.27159842     0.15010
C897        C  0.99579585  0.29589583  0.34650162     0.36660
C898        C  0.96749090  0.18473794  0.22839192     0.36560
N899        N  0.00107389  0.31894695  0.37016559    -0.43680
N900        N  0.96150163  0.16203933  0.20453833    -0.43680
C901        C  0.07028381  0.08275803  0.60725693    -0.00100
C902        C  0.10919440  0.07346880  0.59881008    -0.11970
C903        C  0.12884758  0.04568048  0.62029731     0.02140
C904        C  0.10933855  0.02701758  0.65088726    -0.00180
C905        C  0.07092143  0.03775410  0.66027858    -0.11910
C906        C  0.05141288  0.06561427  0.63887546     0.02030
H907        H  0.12386000  0.08723356  0.57478417     0.15010
H908        H  0.05570047  0.02326138  0.68352351     0.15010
C909        C  0.01201986  0.07600597  0.64960742     0.36660
C910        C  0.16797643  0.03507112  0.60883266     0.36560
N911        N  0.98050598  0.08448436  0.65825117    -0.43680
N912        N  0.19934721  0.02656462  0.59971367    -0.43680
C913        C  0.16553758  0.18519407  0.51135462    -0.00100
C914        C  0.17509728  0.14598255  0.51117928    -0.11970
C915        C  0.21412559  0.13414144  0.51076399     0.02140
C916        C  0.24448563  0.16179988  0.51120491    -0.00180
C917        C  0.23500519  0.20113314  0.51054258    -0.11910
C918        C  0.19573065  0.21298044  0.51024486     0.02030
H919        H  0.15191933  0.12452150  0.51079939     0.15010
H920        H  0.25824087  0.22248866  0.51016220     0.15010
C921        C  0.18699140  0.25352654  0.50793321     0.36660
C922        C  0.22245353  0.09343672  0.50853298     0.36560
N923        N  0.17986735  0.28600337  0.50590643    -0.43680
N924        N  0.22934286  0.06089152  0.50641085    -0.43680
C925        C  0.88632887  0.07951067  0.59317561    -0.00100
C926        C  0.84704465  0.08765203  0.60177973    -0.11970
C927        C  0.82178056  0.05898978  0.61559205     0.02140
C928        C  0.83632632  0.02161331  0.62235262    -0.00180
C929        C  0.87656674  0.01491029  0.61701838    -0.11910
C930        C  0.90106343  0.04256624  0.60103064     0.02030
H931        H  0.83543884  0.11598116  0.59567247     0.15010
H932        H  0.88882048  0.98699562  0.62368413     0.15010
C933        C  0.94062594  0.03130793  0.59171568     0.36660
C934        C  0.78121025  0.06886776  0.62066260     0.36560
N935        N  0.97198633  0.02171704  0.58372063    -0.43680
N936        N  0.74903144  0.07814958  0.62477589    -0.43680
C937        C  0.80047900  0.18601475  0.50412482    -0.00100
C938        C  0.77802943  0.20050090  0.53498612    -0.11970
C939        C  0.73877155  0.18990178  0.53984343     0.02140
C940        C  0.72116848  0.16378292  0.51380337    -0.00180
C941        C  0.74353422  0.14937206  0.48291219    -0.11910
C942        C  0.78252903  0.16048676  0.47757455     0.02030
H943        H  0.79120777  0.22034083  0.55549698     0.15010
H944        H  0.73055030  0.12892378  0.46288347     0.15010
C945        C  0.80331897  0.14411701  0.44519639     0.36660
C946        C  0.71701519  0.20729717  0.57102827     0.36560
N947        N  0.81933761  0.13098394  0.41886272    -0.43680
N948        N  0.69977418  0.22150251  0.59602193    -0.43680
C949        C  0.90428768  0.33151659  0.60264868    -0.00100
C950        C  0.93260631  0.34127072  0.62997404    -0.11970
C951        C  0.92410826  0.36719406  0.65922159     0.02140
C952        C  0.88689595  0.38426361  0.66073211    -0.00180
C953        C  0.85789492  0.37345303  0.63431420    -0.11910
C954        C  0.86619072  0.34626953  0.60558019     0.02030
H955        H  0.96152193  0.32859673  0.62834310     0.15010
H956        H  0.82938935  0.38691954  0.63560219     0.15010
C957        C  0.83587618  0.33479884  0.57904438     0.36660
C958        C  0.95459805  0.37755382  0.68616728     0.36560
N959        N  0.81133526  0.32552314  0.55804188    -0.43680
N960        N  0.97856911  0.38608840  0.70810139    -0.43680
C961        C  0.96823344  0.25562225  0.68264416    -0.00100
C962        C  0.93075461  0.25695393  0.70014983    -0.11970
C963        C  0.92289141  0.27841486  0.73433128     0.02140
C964        C  0.95244251  0.30110388  0.75241611    -0.00180
C965        C  0.98998042  0.29954760  0.73483905    -0.11910
C966        C  0.99810543  0.27711938  0.70140158     0.02030
H967        H  0.90697061  0.24077957  0.68715604     0.15010
H968        H  0.01362655  0.31665727  0.74672642     0.15010
C969        C  0.03778662  0.27700647  0.68729768     0.36660
C970        C  0.88432103  0.27486143  0.75082019     0.36560
N971        N  0.06985603  0.27664310  0.67664173    -0.43680
N972        N  0.85329577  0.27178546  0.76385359    -0.43680
C973        C  0.34445028  0.83309642  0.95600079    -0.00100
C974        C  0.32395195  0.83899664  0.92163989    -0.11970
C975        C  0.34068379  0.86079477  0.89175237     0.02140
C976        C  0.37807355  0.87795573  0.89676881    -0.00180
C977        C  0.39756945  0.87279935  0.93170259    -0.11910
C978        C  0.38236814  0.84906035  0.96007571     0.02030
H979        H  0.29473586  0.82716936  0.91843576     0.15010
H980        H  0.42601164  0.88585924  0.93627644     0.15010
C981        C  0.40708334  0.84061713  0.99268490     0.36660
C982        C  0.31828504  0.86624229  0.85708073     0.36560
N983        N  0.42685844  0.83382680  0.01872044    -0.43680
N984        N  0.30026640  0.87064493  0.82932485    -0.43680
C985        C  0.34789582  0.10178574  0.94502861    -0.00100
C986        C  0.38847420  0.09653512  0.94710405    -0.11970
C987        C  0.40800259  0.07403017  0.92017101     0.02140
C988        C  0.38694860  0.05712234  0.88956747    -0.00180
C989        C  0.34686265  0.06504961  0.88565951    -0.11910
C990        C  0.32709422  0.08717631  0.91332864     0.02030
H991        H  0.40475146  0.10886557  0.97101284     0.15010
H992        H  0.33080835  0.05282048  0.86175865     0.15010
C993        C  0.28562604  0.09334311  0.90947486     0.36660
C994        C  0.44960356  0.06911030  0.92484369     0.36560
N995        N  0.25241367  0.09858774  0.90637142    -0.43680
N996        N  0.48287530  0.06535191  0.92911180    -0.43680
C997        C  0.13419042  0.52343071  0.37943042    -0.00100
C998        C  0.14527621  0.53869444  0.41528482    -0.11970
C999        C  0.12227852  0.56642471  0.43373116     0.02140
C1000       C  0.08707834  0.57827488  0.41667502    -0.00180
C1001       C  0.07669108  0.56421190  0.38020747    -0.11910
C1002       C  0.10007900  0.53697460  0.36138927     0.02030
H1003       H  0.17139674  0.52814831  0.42926185     0.15010
H1004       H  0.05003784  0.57411483  0.36672960     0.15010
C1005       C  0.08755143  0.52184456  0.32458307     0.36660
C1006       C  0.13550489  0.58261521  0.46984577     0.36560
N1007       N  0.07777961  0.50964744  0.29503064    -0.43680
N1008       N  0.14661212  0.59613006  0.49835814    -0.43680
C1009       C  0.14483717  0.38329321  0.38935197    -0.00100
C1010       C  0.12896686  0.35395278  0.36601121    -0.11970
C1011       C  0.10508391  0.32509102  0.38170591     0.02140
C1012       C  0.09409657  0.32696999  0.42099751    -0.00180
C1013       C  0.11249115  0.35416519  0.44488152    -0.11910
C1014       C  0.13903310  0.38097198  0.42973162     0.02030
H1015       H  0.13377112  0.35428982  0.33516039     0.15010
H1016       H  0.10679452  0.35387769  0.47562622     0.15010
C1017       C  0.16042943  0.40528947  0.45630307     0.36660
C1018       C  0.09221111  0.29427402  0.35659767     0.36560
N1019       N  0.17773176  0.42454763  0.47765965    -0.43680
N1020       N  0.08294203  0.26935741  0.33622649    -0.43680
C1021       C  0.12661933  0.52843087  0.63435533    -0.00100
C1022       C  0.10534693  0.55598592  0.65513127    -0.11970
C1023       C  0.08295759  0.58328465  0.63599465     0.02140
C1024       C  0.08091854  0.58259780  0.59542835    -0.00180
C1025       C  0.10324357  0.55606154  0.57463759    -0.11910
C1026       C  0.12720548  0.53007628  0.59360000     0.02030
H1027       H  0.10401141  0.55462462  0.68629358     0.15010
H1028       H  0.10190029  0.55560951  0.54350451     0.15010
C1029       C  0.15092416  0.50436362  0.57053406     0.36660
C1030       C  0.06001234  0.60952900  0.65888362     0.36560
N1031       N  0.16964312  0.48358074  0.55204109    -0.43680
N1032       N  0.04174434  0.63012022  0.67791630    -0.43680
C1033       C  0.11026265  0.39023728  0.64502594    -0.00100
C1034       C  0.13151237  0.35797281  0.63329813    -0.11970
C1035       C  0.11374220  0.32915898  0.61107113     0.02140
C1036       C  0.07431932  0.33333835  0.59928588    -0.00180
C1037       C  0.05252274  0.36442849  0.61320102    -0.11910
C1038       C  0.06983498  0.39226772  0.63670463     0.02030
H1039       H  0.16237595  0.35611184  0.64006079     0.15010
H1040       H  0.02177400  0.36675291  0.60608468     0.15010
C1041       C  0.04577181  0.42327684  0.65122053     0.36660
C1042       C  0.13690129  0.29603058  0.60058487     0.36560
N1043       N  0.02674759  0.44828379  0.66281414    -0.43680
N1044       N  0.15542025  0.26920473  0.59307010    -0.43680
C1045       C  0.09870749  0.55894363  0.10263997    -0.00100
C1046       C  0.10928002  0.59715210  0.11179251    -0.11970
C1047       C  0.08183730  0.62314030  0.12642462     0.02140
C1048       C  0.04345267  0.61040150  0.13347746    -0.00180
C1049       C  0.03366745  0.57152775  0.12704604    -0.11910
C1050       C  0.06061820  0.54592522  0.11133502     0.02030
H1051       H  0.13875227  0.60707613  0.10624035     0.15010
H1052       H  0.00445886  0.56122732  0.13383407     0.15010
C1053       C  0.04831255  0.50653055  0.10509132     0.36660
C1054       C  0.09311745  0.66292344  0.13199778     0.36560
N1055       N  0.03802750  0.47509477  0.10009777    -0.43680
N1056       N  0.10210363  0.69484589  0.13630216    -0.43680
C1057       C  0.10056245  0.36031110  0.09726090    -0.00100
C1058       C  0.07108377  0.37549721  0.12066152    -0.11970
C1059       C  0.04762443  0.35115870  0.14283786     0.02140
C1060       C  0.05228307  0.31072662  0.14021964    -0.00180
C1061       C  0.08234274  0.29549185  0.11778634    -0.11910
C1062       C  0.10717876  0.31995000  0.09719431     0.02030
H1063       H  0.06722342  0.40639978  0.12256246     0.15010
H1064       H  0.08578647  0.26450305  0.11565188     0.15010
C1065       C  0.13919305  0.30263995  0.07637713     0.36660
C1066       C  0.01818437  0.36818326  0.16745483     0.36560
N1067       N  0.16518819  0.28832232  0.06059533    -0.43680
N1068       N  0.99441916  0.38169157  0.18702803    -0.43680
C1069       C  0.21559553  0.45413635  0.19274826    -0.00100
C1070       C  0.23329558  0.48108639  0.21768529    -0.11970
C1071       C  0.22721435  0.47952669  0.25778757     0.02140
C1072       C  0.20169054  0.45148686  0.27366460    -0.00180
C1073       C  0.18534944  0.42378977  0.24886286    -0.11910
C1074       C  0.19233360  0.42448715  0.20916979     0.02030
H1075       H  0.25221727  0.50322908  0.20587263     0.15010
H1076       H  0.16550651  0.40221259  0.26028382     0.15010
C1077       C  0.17349586  0.39497679  0.18627776     0.36660
C1078       C  0.24831307  0.50635124  0.28205933     0.36560
N1079       N  0.15836541  0.37065912  0.16884597    -0.43680
N1080       N  0.26537682  0.52770839  0.30154911    -0.43680
C1081       C  0.41299375  0.33237605  0.87536049    -0.00100
C1082       C  0.38059411  0.31131455  0.88902331    -0.11970
C1083       C  0.34835368  0.32988045  0.90597386     0.02140
C1084       C  0.34889842  0.37024738  0.91152729    -0.00180
C1085       C  0.38004978  0.39148668  0.89591422    -0.11910
C1086       C  0.41110038  0.37320474  0.87684431     0.02030
H1087       H  0.38082537  0.28012071  0.88769667     0.15010
H1088       H  0.37996089  0.42266678  0.89835961     0.15010
C1089       C  0.44001456  0.39725608  0.85824991     0.36660
C1090       C  0.31562601  0.30654465  0.91798354     0.36560
N1091       N  0.46304495  0.41662795  0.84330404    -0.43680
N1092       N  0.28931112  0.28734753  0.92649397    -0.43680
C1093       C  0.25246339  0.28588502  0.00838325    -0.00100
C1094       C  0.29073835  0.28256904  0.02242524    -0.11970
C1095       C  0.30912661  0.24687817  0.02394867     0.02140
C1096       C  0.28854157  0.21350877  0.01249372    -0.00180
C1097       C  0.25034048  0.21684550  0.99803960    -0.11910
C1098       C  0.23228415  0.25286270  0.99558533     0.02030
H1099       H  0.30672135  0.30822154  0.03123998     0.15010
H1100       H  0.23466815  0.19122794  0.98865930     0.15010
C1101       C  0.19302362  0.25518650  0.98076948     0.36660
C1102       C  0.34972893  0.24551478  0.03512751     0.36560
N1103       N  0.16144315  0.25709564  0.96912327    -0.43680
N1104       N  0.38235205  0.24427439  0.04370003    -0.43680
C1105       C  0.06264737  0.61236416  0.87201985    -0.00100
C1106       C  0.07623416  0.62547351  0.90795116    -0.11970
C1107       C  0.09606358  0.60073116  0.93258784     0.02140
C1108       C  0.10287646  0.56238677  0.92119872    -0.00180
C1109       C  0.09242702  0.55029610  0.88412360    -0.11910
C1110       C  0.07230518  0.57481118  0.85946460     0.02030
H1111       H  0.06830721  0.65403421  0.91805955     0.15010
H1112       H  0.09978885  0.52153771  0.87458526     0.15010
C1113       C  0.05875640  0.55950690  0.82304313     0.36660
C1114       C  0.10811801  0.61483758  0.96989536     0.36560
N1115       N  0.04778942  0.54704007  0.79400873    -0.43680
N1116       N  0.11763357  0.62603649  0.99988687    -0.43680
C1117       C  0.01033208  0.35947711  0.87438148    -0.00100
C1118       C  0.03783270  0.38485765  0.85795530    -0.11970
C1119       C  0.07116269  0.39786612  0.87830622     0.02140
C1120       C  0.07966352  0.38392529  0.91554287    -0.00180
C1121       C  0.05220064  0.35834108  0.93212883    -0.11910
C1122       C  0.01789400  0.34639309  0.91216177     0.02030
H1123       H  0.03240056  0.39590312  0.82938002     0.15010
H1124       H  0.05718935  0.34813314  0.96111502     0.15010
C1125       C  0.99100241  0.32044554  0.93090247     0.36660
C1126       C  0.09393184  0.42847228  0.86157916     0.36560
N1127       N  0.96939736  0.29961363  0.94592147    -0.43680
N1128       N  0.11114809  0.45364555  0.84788171    -0.43680
C1129       C  0.20807831  0.45953154  0.82843617    -0.00100
C1130       C  0.21922185  0.48968838  0.80396521    -0.11970
C1131       C  0.20925200  0.48908397  0.76462758     0.02140
C1132       C  0.18424474  0.45964695  0.74975817    -0.00180
C1133       C  0.17396874  0.42940808  0.77459068    -0.11910
C1134       C  0.18754245  0.42774621  0.81222819     0.02030
H1135       H  0.23665829  0.51330456  0.81534646     0.15010
H1136       H  0.15427270  0.40673019  0.76535775     0.15010
C1137       C  0.17804034  0.39313831  0.83337245     0.36660
C1138       C  0.22690458  0.51796762  0.74039485     0.36560
N1139       N  0.17052780  0.36509115  0.84968373    -0.43680
N1140       N  0.24128296  0.54115412  0.72112471    -0.43680
C1141       C  0.41834386  0.58440346  0.87339167    -0.00100
C1142       C  0.37999869  0.58715592  0.85944036    -0.11970
C1143       C  0.34851181  0.57027324  0.87929091     0.02140
C1144       C  0.35546752  0.54844496  0.91301422    -0.00180
C1145       C  0.39386760  0.54607340  0.92675837    -0.11910
C1146       C  0.42457293  0.56517794  0.90870019     0.02030
H1147       H  0.37456512  0.60245151  0.83289972     0.15010
H1148       H  0.39998688  0.53055494  0.95303464     0.15010
C1149       C  0.46155160  0.56626546  0.92874524     0.36660
C1150       C  0.30975778  0.57607599  0.86411303     0.36560
N1151       N  0.49104710  0.56701256  0.94494189    -0.43680
N1152       N  0.27873217  0.58121514  0.85205586    -0.43680
C1153       C  0.28735643  0.71621641  0.02105537    -0.00100
C1154       C  0.25088961  0.70780531  0.03770933    -0.11970
C1155       C  0.23453877  0.67061384  0.03528416     0.02140
C1156       C  0.25455882  0.64092083  0.01553356    -0.00180
C1157       C  0.29094054  0.64949000  0.99871856    -0.11910
C1158       C  0.30775599  0.68635624  0.00198275     0.02030
H1159       H  0.23481398  0.73058988  0.05214300     0.15010
H1160       H  0.30682880  0.62689405  0.98388786     0.15010
C1161       C  0.34688098  0.69227637  0.98741342     0.36660
C1162       C  0.19630383  0.66457376  0.05157116     0.36560
N1163       N  0.37839912  0.69696530  0.97613667    -0.43680
N1164       N  0.16534094  0.66112718  0.06452036    -0.43680
C1165       C  0.86536637  0.88005266  0.34836395    -0.00100
C1166       C  0.90608499  0.88025197  0.35434123    -0.11970
C1167       C  0.92351662  0.85500253  0.38008312     0.02140
C1168       C  0.90119442  0.82534997  0.39687706    -0.00180
C1169       C  0.86171343  0.82130945  0.38642366    -0.11910
C1170       C  0.84336392  0.84883559  0.36331814     0.02030
H1171       H  0.92394943  0.90281021  0.34171480     0.15010
H1172       H  0.84453375  0.79781178  0.39820931     0.15010
C1173       C  0.80186174  0.84493163  0.35731538     0.36660
C1174       C  0.96389525  0.86166671  0.38993522     0.36560
N1175       N  0.76865679  0.84127528  0.35211351    -0.43680
N1176       N  0.99591186  0.86834525  0.39828009    -0.43680
C1177       C  0.89661220  0.07652763  0.41130118    -0.00100
C1178       C  0.89887634  0.07836594  0.37093104    -0.11970
C1179       C  0.88136093  0.04994416  0.34801404     0.02140
C1180       C  0.86034855  0.01998408  0.36570032    -0.00180
C1181       C  0.85649565  0.01921933  0.40590662    -0.11910
C1182       C  0.87453356  0.04716563  0.42882950     0.02030
H1183       H  0.91566232  0.10119251  0.35741288     0.15010
H1184       H  0.84004554  0.99613035  0.41938782     0.15010
C1185       C  0.86896904  0.04578141  0.47002277     0.36660
C1186       C  0.88712034  0.05079716  0.30682398     0.36560
N1187       N  0.86422738  0.04471640  0.50299414    -0.43680
N1188       N  0.89190391  0.05131697  0.27383408    -0.43680
C1189       C  0.12283847  0.88064071  0.36502486    -0.00100
C1190       C  0.13394275  0.87243548  0.40289123    -0.11970
C1191       C  0.11305268  0.84570558  0.42473304     0.02140
C1192       C  0.08037646  0.82688521  0.40873021    -0.00180
C1193       C  0.07144931  0.83242596  0.36971316    -0.11910
C1194       C  0.09204429  0.85969317  0.34793543     0.02030
H1195       H  0.15776366  0.88850572  0.41604558     0.15010
H1196       H  0.04738357  0.81656702  0.35676432     0.15010
C1197       C  0.08004087  0.86706997  0.30890731     0.36660
C1198       C  0.12615815  0.83767812  0.46317255     0.36560
N1199       N  0.07046810  0.87295178  0.27758209    -0.43680
N1200       N  0.13746953  0.83120084  0.49373700    -0.43680
C1201       C  0.07683121  0.07652304  0.41514948    -0.00100
C1202       C  0.11788398  0.07685868  0.41468437    -0.11970
C1203       C  0.13878065  0.04883758  0.39399427     0.02140
C1204       C  0.11827688  0.02100133  0.37189824    -0.00180
C1205       C  0.07723885  0.02250657  0.37071942    -0.11910
C1206       C  0.05651904  0.04907419  0.39286949     0.02030
H1207       H  0.13358615  0.09816786  0.43172415     0.15010
H1208       H  0.06112324  0.00153936  0.35362401     0.15010
C1209       C  0.01443171  0.04709154  0.39237579     0.36660
C1210       C  0.18075746  0.04798354  0.39803155     0.36560
N1211       N  0.98073918  0.04456523  0.39187011    -0.43680
N1212       N  0.21440529  0.04738328  0.40132189    -0.43680
C1213       C  0.55498489  0.33512345  0.14314190    -0.00100
C1214       C  0.58681205  0.31378735  0.12916586    -0.11970
C1215       C  0.61743690  0.33179894  0.10918891     0.02140
C1216       C  0.61577865  0.37172629  0.10162616    -0.00180
C1217       C  0.58547705  0.39344798  0.11790770    -0.11910
C1218       C  0.55587579  0.37575463  0.13944139     0.02030
H1219       H  0.58677893  0.28269220  0.13191989     0.15010
H1220       H  0.58498593  0.42440154  0.11384088     0.15010
C1221       C  0.52652507  0.39994260  0.15712922     0.36660
C1222       C  0.64900016  0.30815500  0.09508565     0.36560
N1223       N  0.50295312  0.41929238  0.17120915    -0.43680
N1224       N  0.67427974  0.28881309  0.08439706    -0.43680
C1225       C  0.35247525  0.36138142  0.09030010    -0.00100
C1226       C  0.38429727  0.34992742  0.06749721    -0.11970
C1227       C  0.41437942  0.32789289  0.08287292     0.02140
C1228       C  0.41350240  0.31773933  0.12224591    -0.00180
C1229       C  0.38030283  0.32653210  0.14427813    -0.11910
C1230       C  0.34969533  0.34795419  0.12862741     0.02030
H1231       H  0.38582802  0.35844709  0.03753481     0.15010
H1232       H  0.37931006  0.31865452  0.17442844     0.15010
C1233       C  0.31707618  0.35754088  0.15332886     0.36660
C1234       C  0.44611379  0.31656484  0.05771440     0.36560
N1235       N  0.29087614  0.36501989  0.17311974    -0.43680
N1236       N  0.47150127  0.30762658  0.03750239    -0.43680
C1237       C  0.54962435  0.60369357  0.12306051    -0.00100
C1238       C  0.54541363  0.59070691  0.08478967    -0.11970
C1239       C  0.57242687  0.56571914  0.06775896     0.02140
C1240       C  0.60550185  0.55382099  0.08865473    -0.00180
C1241       C  0.61060434  0.56809971  0.12649159    -0.11910
C1242       C  0.58293389  0.59251205  0.14384559     0.02030
H1243       H  0.52008069  0.59940945  0.06832156     0.15010
H1244       H  0.63602361  0.55961611  0.14290091     0.15010
C1245       C  0.58851310  0.60420796  0.18341377     0.36660
C1246       C  0.56548249  0.55331805  0.02862048     0.36560
N1247       N  0.59296639  0.61363745  0.21512960    -0.43680
N1248       N  0.55966498  0.54315169  0.99736561    -0.43680
C1249       C  0.35394722  0.56009627  0.09589380    -0.00100
C1250       C  0.35604031  0.56286221  0.13632567    -0.11970
C1251       C  0.38324448  0.58760967  0.15425025     0.02140
C1252       C  0.40820287  0.61056638  0.13157305    -0.00180
C1253       C  0.40395075  0.60986783  0.09142052    -0.11910
C1254       C  0.37730057  0.58497523  0.07356110     0.02030
H1255       H  0.33715154  0.54490706  0.15386582     0.15010
H1256       H  0.42316875  0.62746439  0.07380940     0.15010
C1257       C  0.37396358  0.58643865  0.03231410     0.36660
C1258       C  0.38624776  0.58789886  0.19567136     0.36560
N1259       N  0.37154724  0.58851762  0.99923671    -0.43680
N1260       N  0.38861065  0.58832949  0.22889843    -0.43680
C1261       C  0.63548597  0.10083429  0.08558368    -0.00100
C1262       C  0.65520059  0.08540478  0.11712580    -0.11970
C1263       C  0.63429042  0.06566620  0.14586359     0.02140
C1264       C  0.59369627  0.05843914  0.14111711    -0.00180
C1265       C  0.57455637  0.07442352  0.10961257    -0.11910
C1266       C  0.59442423  0.09783412  0.08376301     0.02030
H1267       H  0.68673531  0.08808244  0.11887618     0.15010
H1268       H  0.54385382  0.06893033  0.10509253     0.15010
C1269       C  0.57214556  0.11758091  0.05464114     0.36660
C1270       C  0.65549472  0.05168402  0.17874378     0.36560
N1271       N  0.55435258  0.13343769  0.03138090    -0.43680
N1272       N  0.67266825  0.04079339  0.20512895    -0.43680
C1273       C  0.36231347  0.10774802  0.08024631    -0.00100
C1274       C  0.39837373  0.09071232  0.07069050    -0.11970
C1275       C  0.41803495  0.06709279  0.09635537     0.02140
C1276       C  0.40298138  0.06192056  0.13389770    -0.00180
C1277       C  0.36876277  0.08211049  0.14461385    -0.11910
C1278       C  0.34836157  0.10469535  0.11820035     0.02030
H1279       H  0.41030824  0.09418936  0.04194551     0.15010
H1280       H  0.35702557  0.07945728  0.17350363     0.15010
C1281       C  0.31268635  0.12311935  0.13048007     0.36660
C1282       C  0.45291438  0.04815852  0.08247854     0.36560
N1283       N  0.28431287  0.13819982  0.14054450    -0.43680
N1284       N  0.48062796  0.03294242  0.07090526    -0.43680
C1285       C  0.48520507  0.22211816  0.20297991    -0.00100
C1286       C  0.49255799  0.18994247  0.17977750    -0.11970
C1287       C  0.49233356  0.15297418  0.19525534     0.02140
C1288       C  0.48639165  0.14734827  0.23498862    -0.00180
C1289       C  0.47806251  0.17949813  0.25838236    -0.11910
C1290       C  0.47708361  0.21682126  0.24250976     0.02030
H1291       H  0.49717248  0.19365551  0.14909457     0.15010
H1292       H  0.47169854  0.17546478  0.28864397     0.15010
C1293       C  0.46663882  0.24905151  0.26679066     0.36660
C1294       C  0.49442624  0.12086744  0.16911307     0.36560
N1295       N  0.45793998  0.27493858  0.28610141    -0.43680
N1296       N  0.49448638  0.09502277  0.14808897    -0.43680
C1297       C  0.39543189  0.87624405  0.38812660    -0.00100
C1298       C  0.35866974  0.88956808  0.40008516    -0.11970
C1299       C  0.33611210  0.86835342  0.42632348     0.02140
C1300       C  0.35059131  0.83342899  0.44091792    -0.00180
C1301       C  0.38689765  0.81974396  0.42802528    -0.11910
C1302       C  0.40919031  0.84072811  0.40163652     0.02030
H1303       H  0.34777652  0.91664416  0.38913870     0.15010
H1304       H  0.39852009  0.79334868  0.43986021     0.15010
C1305       C  0.44708519  0.82645164  0.39038372     0.36660
C1306       C  0.29914489  0.88368807  0.43921578     0.36560
N1307       N  0.47791389  0.81578041  0.38188030    -0.43680
N1308       N  0.26947258  0.89588030  0.44957327    -0.43680
C1309       C  0.40048724  0.07193045  0.38451620    -0.00100
C1310       C  0.42333465  0.09420773  0.40972270    -0.11970
C1311       C  0.40573691  0.11819577  0.43727329     0.02140
C1312       C  0.36448839  0.11865895  0.44106263    -0.00180
C1313       C  0.34183995  0.09878320  0.41364064    -0.11910
C1314       C  0.35946605  0.07592053  0.38524395     0.02030
H1315       H  0.45496622  0.09272565  0.40796193     0.15010
H1316       H  0.31022629  0.09870303  0.41605562     0.15010
C1317       C  0.33462869  0.05482654  0.35888925     0.36660
C1318       C  0.43060351  0.14131146  0.46192488     0.36560
N1319       N  0.31456551  0.03810696  0.33777745    -0.43680
N1320       N  0.45062599  0.15977394  0.48161230    -0.43680
C1321       C  0.30736907  0.95801251  0.27358798    -0.00100
C1322       C  0.28111910  0.98699590  0.26283343    -0.11970
C1323       C  0.24153131  0.98540247  0.27395266     0.02140
C1324       C  0.22802386  0.95553068  0.29838329    -0.00180
C1325       C  0.25422796  0.92618392  0.30796521    -0.11910
C1326       C  0.29269945  0.92627903  0.29483973     0.02030
H1327       H  0.29147600  0.01084005  0.24550005     0.15010
H1328       H  0.24514424  0.90311931  0.32690825     0.15010
C1329       C  0.31596949  0.89316520  0.30465144     0.36660
C1330       C  0.21546075  0.01405052  0.25878736     0.36560
N1331       N  0.33356328  0.86584535  0.31206834    -0.43680
N1332       N  0.19462603  0.03701246  0.24647110    -0.43680
C1333       C  0.59703657  0.88185188  0.14178098    -0.00100
C1334       C  0.59025376  0.84250868  0.13571354    -0.11970
C1335       C  0.61169770  0.82191670  0.10820701     0.02140
C1336       C  0.64175912  0.84046059  0.08718886    -0.00180
C1337       C  0.65014073  0.87940671  0.09513512    -0.11910
C1338       C  0.62790498  0.90019711  0.12208693     0.02030
H1339       H  0.56675040  0.82828589  0.15113396     0.15010
H1340       H  0.67252220  0.89412513  0.07855736     0.15010
C1341       C  0.63680462  0.94035371  0.12853584     0.36660
C1342       C  0.59911976  0.78318159  0.09901510     0.36560
N1343       N  0.64419927  0.97252880  0.13357620    -0.43680
N1344       N  0.58867888  0.75234123  0.09127926    -0.43680
C1345       C  0.39647741  0.87618115  0.13783653    -0.00100
C1346       C  0.40224147  0.83645652  0.13312903    -0.11970
C1347       C  0.37674687  0.81411728  0.11051772     0.02140
C1348       C  0.34394278  0.83143648  0.09305743    -0.00180
C1349       C  0.33685885  0.87080600  0.10042815    -0.11910
C1350       C  0.36308244  0.89325990  0.12196717     0.02030
H1351       H  0.42713496  0.82297459  0.14672554     0.15010
H1352       H  0.31198090  0.88460979  0.08714581     0.15010
C1353       C  0.35537749  0.93384877  0.12724772     0.36660
C1354       C  0.38642219  0.77416699  0.10394616     0.36560
N1355       N  0.34944066  0.96640396  0.13143581    -0.43680
N1356       N  0.39425889  0.74214167  0.09882994    -0.43680
C1357       C  0.49338786  0.78949595  0.23169209    -0.00100
C1358       C  0.49777374  0.78690729  0.19150476    -0.11970
C1359       C  0.49497037  0.75138757  0.17206757     0.02140
C1360       C  0.48812918  0.71728727  0.19289718    -0.00180
C1361       C  0.48348558  0.71976812  0.23302619    -0.11910
C1362       C  0.48574171  0.75546683  0.25244058     0.02030
H1363       H  0.50205776  0.81303236  0.17505405     0.15010
H1364       H  0.47777123  0.69372028  0.24919889     0.15010
C1365       C  0.47975155  0.75608391  0.29344195     0.36660
C1366       C  0.49711235  0.75084413  0.13057322     0.36560
N1367       N  0.47469585  0.75519728  0.32633717    -0.43680
N1368       N  0.49832462  0.75043677  0.09727917    -0.43680
C1369       C  0.57835661  0.88023149  0.39561879    -0.00100
C1370       C  0.61866256  0.87338420  0.39192260    -0.11970
C1371       C  0.63919067  0.85374838  0.42058652     0.02140
C1372       C  0.61867155  0.83741923  0.45193210    -0.00180
C1373       C  0.57800977  0.84311624  0.45444525    -0.11910
C1374       C  0.55840732  0.86622577  0.42822532     0.02030
H1375       H  0.63452733  0.88530986  0.36764196     0.15010
H1376       H  0.56162082  0.83115891  0.47835869     0.15010
C1377       C  0.51851249  0.87663390  0.43688712     0.36660
C1378       C  0.68132780  0.85420393  0.41903902     0.36560
N1379       N  0.48698772  0.88573182  0.44480842    -0.43680
N1380       N  0.71513110  0.85499581  0.41847624    -0.43680
C1381       C  0.56803634  0.07187594  0.39273721    -0.00100
C1382       C  0.59197803  0.05445338  0.41991431    -0.11970
C1383       C  0.61033818  0.07636820  0.44826278     0.02140
C1384       C  0.60316937  0.11635890  0.45094188    -0.00180
C1385       C  0.57895905  0.13403336  0.42397194    -0.11910
C1386       C  0.56168799  0.11203764  0.39449045     0.02030
H1387       H  0.59654135  0.02362140  0.41884513     0.15010
H1388       H  0.57304785  0.16461128  0.42638108     0.15010
C1389       C  0.53605630  0.13077549  0.36767139     0.36660
C1390       C  0.63623042  0.05707393  0.47462991     0.36560
N1391       N  0.51537012  0.14580094  0.34628205    -0.43680
N1392       N  0.65702124  0.04174938  0.49573814    -0.43680
C1393       C  0.75316979  0.95725004  0.29631005    -0.00100
C1394       C  0.72632178  0.96470905  0.32596383    -0.11970
C1395       C  0.68684178  0.97005533  0.31806635     0.02140
C1396       C  0.67354855  0.96842572  0.27980290    -0.00180
C1397       C  0.70013227  0.96017629  0.24996856    -0.11910
C1398       C  0.73999479  0.95482481  0.25797542     0.02030
H1399       H  0.73636997  0.96625619  0.35554909     0.15010
H1400       H  0.68969430  0.95763489  0.22060344     0.15010
C1401       C  0.76676539  0.94727074  0.22670045     0.36660
C1402       C  0.66018488  0.97515751  0.34994364     0.36560
N1403       N  0.78820924  0.94120224  0.20157985    -0.43680
N1404       N  0.63888447  0.97866031  0.37561776    -0.43680
loop_ 
_geom_bond_atom_site_label_1 
_geom_bond_atom_site_label_2 
_geom_bond_distance 
_geom_bond_site_symmetry_2 
_ccdc_geom_bond_type 
O1           C12   1.285       .  A
O1          Eu37   2.430       .  S
O2           C13   1.292       .  A
O2          Eu36   2.473       .  S
O3           C14   1.285       .  A
O3           Eu9   2.427       .  S
O4           C15   1.287       .  A
O4           Eu9   2.442       .  S
O5           C15   1.291       .  A
O5          Eu39   2.454   1_545  S
O6           C14   1.298       .  A
O6          Eu38   2.492   1_545  S
O7           C13   1.295       .  A
O7           Eu9   2.487       .  S
O8           C12   1.295   1_545  A
O8           Eu9   2.486       .  S
Eu9          O19   2.354   1_545  S
Eu9          O11   2.350   1_545  S
Eu9          O10   2.347       .  S
Eu9          O17   2.351       .  S
O10         Eu39   2.351   1_545  S
O10         Eu36   2.350       .  S
O11         Eu37   2.354       .  S
O11         Eu38   2.355       .  S
C12        C1396   1.468       .  S
C13        C1288   1.485       .  S
C14        C1264   1.480       .  S
C15        C1381   1.465       .  S
H16          O17   0.963       .  S
O17         Eu38   2.340   1_545  S
O17         Eu36   2.357       .  S
H18          O19   0.966       .  S
O19         Eu37   2.369       .  S
O19         Eu39   2.353       .  S
O20          C43   1.296       .  A
O20         Eu36   2.491   1_565  S
O21          C44   1.295       .  A
O21         Eu37   2.492       .  S
O22          C45   1.296       .  A
O22         Eu38   2.481   1_545  S
O23          C46   1.295       .  A
O23         Eu39   2.481   1_545  S
O24          C47   1.292       .  A
O24         Eu39   2.461       .  S
O25          C48   1.296       .  A
O25         Eu38   2.484       .  S
O26          C49   1.282       .  A
O26         Eu40   2.411       .  S
O27          C50   1.287       .  A
O27         Eu40   2.442       .  S
O28          C49   1.299       .  A
O28         Eu38   2.501       .  S
O29          C50   1.292       .  A
O29         Eu39   2.469       .  S
O30          C45   1.285       .  A
O30         Eu36   2.418       .  S
O31          C48   1.287       .  A
O31         Eu37   2.436       .  S
O32          C47   1.290       .  A
O32         Eu37   2.451       .  S
O33          C46   1.285       .  A
O33         Eu36   2.430       .  S
O34          C43   1.285       .  A
O34         Eu40   2.427       .  S
O35          C44   1.290       .  A
O35         Eu40   2.467       .  S
Eu36         O54   2.349   1_545  S
Eu36         O42   2.351   1_545  S
Eu37         O41   2.349       .  S
Eu37         O52   2.340       .  S
Eu38         O52   2.344       .  S
Eu38         O42   2.364       .  S
Eu39         O41   2.375       .  S
Eu39         O54   2.342       .  S
Eu40         O41   2.342       .  S
Eu40         O52   2.342       .  S
Eu40         O54   2.356       .  S
Eu40         O42   2.358       .  S
C43        C1321   1.490       .  S
C44        C1357   1.487       .  S
C45        C1276   1.489       .  S
C46        C1309   1.474       .  S
C47        C1369   1.477       .  S
C48        C1333   1.471       .  S
C49        C1345   1.469       .  S
C50        C1297   1.469       .  S
H51          O52   0.965       .  S
H53          O54   0.965       .  S
C55        C1360   1.490       .  S
C55          C56   1.415       .  A
C55          C60   1.413       .  A
C56          C57   1.410       .  A
C56          H61   1.083       .  S
C57        C1237   1.490       .  S
C57          C58   1.394       .  A
C58          C59   1.392       .  A
C58          H62   1.086       .  S
C59        C1252   1.479       .  S
C59          C60   1.406       .  A
C60          H63   1.083       .  S
C64        C1285   1.482       .  S
C64          C65   1.407       .  A
C64          C69   1.411       .  A
C65          C66   1.403       .  A
C65          H70   1.084       .  S
C66        C1228   1.482       .  S
C66          C67   1.395       .  A
C67          C68   1.397       .  A
C67          H71   1.083       .  S
C68        C1213   1.490       .  S
C68          C69   1.409       .  A
C69          H72   1.083       .  S
C73        C1324   1.500       .  S
C73          C74   1.414       .  A
C73          C78   1.417       .  A
C74          C75   1.406       .  A
C74          H79   1.080   1_565  S
C75        C1204   1.485   1_565  S
C75          C76   1.395       .  A
C76          C77   1.387       .  A
C76          H80   1.085       .  S
C77        C1189   1.471       .  S
C77          C78   1.397       .  A
C78          H81   1.083       .  S
C82        C1393   1.475       .  S
C82          C83   1.401       .  A
C82          C87   1.412       .  A
C83          C84   1.390       .  A
C83          H88   1.085   1_565  S
C84        C1180   1.466   1_565  S
C84          C85   1.388       .  A
C85          C86   1.404       .  A
C85          H89   1.084       .  S
C86        C1165   1.499       .  S
C86          C87   1.414       .  A
C87          H90   1.081       .  S
O91         C102   1.301       .  A
O91        Eu127   2.511       .  S
O92         C103   1.292       .  A
O92        Eu126   2.456       .  S
O93         C104   1.292       .  A
O93         Eu99   2.470       .  S
O94         C105   1.297       .  A
O94         Eu99   2.499       .  S
O95         C105   1.286       .  A
O95        Eu129   2.438       .  S
O96         C104   1.295   1_556  A
O96        Eu128   2.488       .  S
O97         C103   1.287       .  A
O97         Eu99   2.432       .  S
O98         C102   1.285       .  A
O98         Eu99   2.425       .  S
Eu99        O109   2.354       .  S
Eu99        O101   2.359       .  S
Eu99        O100   2.345       .  S
Eu99        O107   2.364       .  S
O100       Eu129   2.345       .  S
O100       Eu126   2.363       .  S
O101       Eu127   2.332       .  S
O101       Eu128   2.336   1_554  S
C102       C1249   1.482       .  S
C103       C1045   1.475       .  S
C104       C1156   1.490       .  S
C105       C1069   1.496       .  S
H106        O107   0.966       .  S
O107       Eu128   2.370   1_554  S
O107       Eu126   2.376       .  S
H108        O109   0.966       .  S
O109       Eu127   2.365       .  S
O109       Eu129   2.341       .  S
O110        C133   1.292       .  A
O110       Eu126   2.471   1_556  S
O111        C134   1.296       .  A
O111       Eu127   2.476   1_556  S
O112        C135   1.279       .  A
O112       Eu128   2.386       .  S
O113        C136   1.280       .  A
O113       Eu129   2.391       .  S
O114        C137   1.286       .  A
O114       Eu129   2.433       .  S
O115        C138   1.286       .  A
O115       Eu128   2.439       .  S
O116        C139   1.282       .  A
O116       Eu130   2.410       .  S
O117        C140   1.291   1_556  A
O117       Eu130   2.463       .  S
O118        C139   1.298       .  A
O118       Eu128   2.501       .  S
O119        C140   1.284       .  A
O119       Eu129   2.421       .  S
O120        C135   1.299       .  A
O120       Eu126   2.508   1_556  S
O121        C138   1.292       .  A
O121       Eu127   2.456   1_556  S
O122        C137   1.293       .  A
O122       Eu127   2.463       .  S
O123        C136   1.301       .  A
O123       Eu126   2.513       .  S
O124        C133   1.308       .  A
O124       Eu130   2.559       .  S
O125        C134   1.295       .  A
O125       Eu130   2.480       .  S
Eu126       O144   2.372       .  S
Eu126       O132   2.354   1_554  S
Eu127       O131   2.342       .  S
Eu127       O142   2.367   1_554  S
Eu128       O142   2.334       .  S
Eu128       O132   2.361       .  S
Eu129       O131   2.316       .  S
Eu129       O144   2.369       .  S
Eu130       O131   2.349   1_556  S
Eu130       O142   2.379       .  S
Eu130       O144   2.338   1_556  S
Eu130       O132   2.344       .  S
C133       C1120   1.519       .  S
C134       C1084   1.489       .  S
C135       C1108   1.460       .  S
C136       C1057   1.472       .  S
C137       C1225   1.479       .  S
C138       C1144   1.491       .  S
C139       C1129   1.492       .  S
C140       C1093   1.465       .  S
H141        O142   0.965       .  S
H143        O144   0.966       .  S
C145       C1132   1.510       .  S
C145        C146   1.421       .  A
C145        C150   1.417       .  A
C146        C147   1.398       .  A
C146        H151   1.081       .  S
C147       C1033   1.473       .  S
C147        C148   1.382       .  A
C148        C149   1.387       .  A
C148        H152   1.085       .  S
C149       C1021   1.477       .  S
C149        C150   1.406       .  A
C150        H153   1.079       .  S
C154       C1072   1.499       .  S
C154        C155   1.407       .  A
C154        C159   1.418       .  A
C155        C156   1.398       .  A
C155        H160   1.083       .  S
C156        C997   1.472       .  S
C156        C157   1.391       .  A
C157        C158   1.399       .  A
C157        H161   1.084       .  S
C158       C1009   1.497       .  S
C158        C159   1.414       .  A
C159        H162   1.083       .  S
C163       C1096   1.475       .  S
C163        C164   1.413       .  A
C163        C168   1.404   1_554  A
C164        C165   1.406       .  A
C164        H169   1.082       .  S
C165       C1273   1.486       .  S
C165        C166   1.395       .  A
C166        C167   1.390   1_554  A
C166        H170   1.086       .  S
C167        C985   1.469       .  S
C167        C168   1.394       .  A
C168        H171   1.084       .  S
C172       C1153   1.492       .  S
C172        C173   1.415       .  A
C172        C177   1.413   1_554  A
C173        C174   1.411       .  A
C173        H178   1.083       .  S
C174       C1348   1.491       .  S
C174        C175   1.393       .  A
C175        C176   1.392   1_554  A
C175        H179   1.085       .  S
C176        C973   1.483       .  S
C176        C177   1.403       .  A
C177        H180   1.083       .  S
O181        C192   1.286       .  A
O181       Eu217   2.434       .  S
O182        C193   1.290       .  A
O182       Eu216   2.446       .  S
O183        C194   1.294       .  A
O183       Eu189   2.475   1_455  S
O184        C195   1.294       .  A
O184       Eu189   2.472       .  S
O185        C195   1.284       .  A
O185       Eu219   2.416       .  S
O186        C194   1.287       .  A
O186       Eu218   2.435       .  S
O187        C193   1.289       .  A
O187       Eu189   2.438       .  S
O188        C192   1.294       .  A
O188       Eu189   2.474   1_455  S
Eu189       O199   2.364       .  S
Eu189       O191   2.334   1_655  S
Eu189       O190   2.346       .  S
Eu189       O197   2.387       .  S
O190       Eu219   2.336       .  S
O190       Eu216   2.339       .  S
O191       Eu217   2.351       .  S
O191       Eu218   2.356       .  S
C192       C1201   1.470       .  S
C193        C925   1.473       .  S
C194        C901   1.465       .  S
C195       C1177   1.464       .  S
H196        O197   0.966       .  S
O197       Eu218   2.351   1_655  S
O197       Eu216   2.353       .  S
H198        O199   0.966       .  S
O199       Eu217   2.344   1_655  S
O199       Eu219   2.356       .  S
O200        C223   1.283       .  A
O200       Eu216   2.415       .  S
O201        C224   1.284       .  A
O201       Eu217   2.424       .  S
O202        C225   1.307   1_455  A
O202       Eu218   2.558       .  S
O203        C226   1.292       .  A
O203       Eu219   2.472       .  S
O204        C227   1.287       .  A
O204       Eu219   2.444       .  S
O205        C228   1.294       .  A
O205       Eu218   2.482       .  S
O206        C229   1.298       .  A
O206       Eu220   2.489   1_455  S
O207        C230   1.301       .  A
O207       Eu220   2.510       .  S
O208        C229   1.281       .  A
O208       Eu218   2.393       .  S
O209        C230   1.283       .  A
O209       Eu219   2.417       .  S
O210        C225   1.292       .  A
O210       Eu216   2.468       .  S
O211        C228   1.289       .  A
O211       Eu217   2.453       .  S
O212        C227   1.295   1_455  A
O212       Eu217   2.489       .  S
O213        C226   1.286       .  A
O213       Eu216   2.432       .  S
O214        C223   1.291       .  A
O214       Eu220   2.448       .  S
O215        C224   1.299       .  A
O215       Eu220   2.503   1_455  S
Eu216       O234   2.358       .  S
Eu216       O222   2.327       .  S
Eu217       O221   2.344   1_455  S
Eu217       O232   2.354       .  S
Eu218       O232   2.372       .  S
Eu218       O222   2.315   1_455  S
Eu219       O221   2.355       .  S
Eu219       O234   2.345       .  S
Eu220       O221   2.338       .  S
Eu220       O232   2.358   1_655  S
Eu220       O234   2.378       .  S
Eu220       O222   2.346       .  S
C223        C949   1.446       .  S
C224       C1012   1.482       .  S
C225        C961   1.541       .  S
C226        C937   1.486       .  S
C227        C889   1.478       .  S
C228        C913   1.475       .  S
C229       C1036   1.469       .  S
C230        C880   1.474       .  S
H231        O232   0.966       .  S
H233        O234   0.966       .  S
C235        C940   1.488       .  S
C235        C236   1.406       .  A
C235        C240   1.415       .  A
C236        C237   1.393       .  A
C236        H241   1.084       .  S
C237       C1384   1.469       .  S
C237        C238   1.391       .  A
C238        C239   1.402       .  A
C238        H242   1.085       .  S
C239        C868   1.495       .  S
C239        C240   1.412       .  A
C240        H243   1.082       .  S
C244        C916   1.483       .  S
C244        C245   1.408       .  A
C244        C249   1.408       .  A
C245        C246   1.403       .  A
C245        H250   1.084       .  S
C246        C856   1.484       .  S
C246        C247   1.396       .  A
C247        C248   1.398       .  A
C247        H251   1.084       .  S
C248       C1312   1.488       .  S
C248        C249   1.409       .  A
C249        H252   1.084       .  S
C253        C892   1.481       .  S
C253        C254   1.413       .  A
C253        C258   1.405   1_655  A
C254        C255   1.415       .  A
C254        H259   1.082       .  S
C255        C844   1.497       .  S
C255        C256   1.397       .  A
C256        C257   1.389   1_655  A
C256        H260   1.085       .  S
C257       C1060   1.469       .  S
C257        C258   1.398       .  A
C258        H261   1.084       .  S
C262        C964   1.551       .  S
C262        C263   1.419       .  A
C262        C267   1.440       .  A
C263        C264   1.408       .  A
C263        H268   1.081   1_655  S
C264       C1117   1.522   1_655  S
C264        C265   1.414       .  A
C265        C266   1.432       .  A
C265        H269   1.079       .  S
C266        C829   1.602       .  S
C266        C267   1.434       .  A
C267        H270   1.073       .  S
O271        C282   1.299       .  A
O271       Eu307   2.503   1_455  S
O272        C283   1.292       .  A
O272       Eu306   2.469   1_455  S
O273        C284   1.291       .  A
O273       Eu279   2.461       .  S
O274        C285   1.290   1_455  A
O274       Eu279   2.457       .  S
O275        C285   1.288       .  A
O275       Eu309   2.445       .  S
O276        C284   1.292       .  A
O276       Eu308   2.461       .  S
O277        C283   1.284       .  A
O277       Eu279   2.430       .  S
O278        C282   1.281       .  A
O278       Eu279   2.409       .  S
Eu279       O289   2.342   1_455  S
Eu279       O281   2.356       .  S
Eu279       O280   2.347   1_455  S
Eu279       O287   2.336       .  S
O280       Eu309   2.361       .  S
O280       Eu306   2.337       .  S
O281       Eu307   2.343   1_455  S
O281       Eu308   2.348       .  S
C282       C1192   1.469       .  S
C283       C1000   1.464       .  S
C284        C793   1.483       .  S
C285        C745   1.464       .  S
H286        O287   0.966       .  S
O287       Eu308   2.364       .  S
O287       Eu306   2.355   1_455  S
H288        O289   0.965       .  S
O289       Eu307   2.349       .  S
O289       Eu309   2.354       .  S
O290        C313   1.285       .  A
O290       Eu306   2.424       .  S
O291        C314   1.296       .  A
O291       Eu307   2.476       .  S
O292        C315   1.284       .  A
O292       Eu308   2.419       .  S
O293        C316   1.287       .  A
O293       Eu309   2.436       .  S
O294        C317   1.288       .  A
O294       Eu309   2.438       .  S
O295        C318   1.284       .  A
O295       Eu308   2.425       .  S
O296        C319   1.288       .  A
O296       Eu310   2.445       .  S
O297        C320   1.289       .  A
O297       Eu310   2.452       .  S
O298        C319   1.295   1_455  A
O298       Eu308   2.484       .  S
O299        C320   1.293       .  A
O299       Eu309   2.473       .  S
O300        C315   1.294       .  A
O300       Eu306   2.472   1_455  S
O301        C318   1.295       .  A
O301       Eu307   2.479   1_455  S
O302        C317   1.296       .  A
O302       Eu307   2.482       .  S
O303        C316   1.297       .  A
O303       Eu306   2.477       .  S
O304        C313   1.295       .  A
O304       Eu310   2.481       .  S
O305        C314   1.287       .  A
O305       Eu310   2.433       .  S
Eu306       O324   2.376       .  S
Eu306       O312   2.343       .  S
Eu307       O311   2.353       .  S
Eu307       O322   2.372       .  S
Eu308       O322   2.344   1_455  S
Eu308       O312   2.330   1_455  S
Eu309       O311   2.329       .  S
Eu309       O324   2.364       .  S
Eu310       O311   2.352       .  S
Eu310       O322   2.360       .  S
Eu310       O324   2.350       .  S
Eu310       O312   2.327       .  S
C313        C805   1.493       .  S
C314        C757   1.472       .  S
C315       C1024   1.465       .  S
C316        C736   1.489       .  S
C317       C1168   1.480       .  S
C318        C781   1.466       .  S
C319        C817   1.498       .  S
C320        C769   1.480       .  S
H321        O322   0.966       .  S
H323        O324   0.966       .  S
C325        C772   1.482       .  S
C325        C326   1.411       .  A
C325        C330   1.409       .  A
C326        C327   1.408       .  A
C326        H331   1.083       .  S
C327       C1372   1.492       .  S
C327        C328   1.396       .  A
C328        C329   1.393       .  A
C328        H332   1.084       .  S
C329        C721   1.475       .  S
C329        C330   1.402       .  A
C330        H333   1.083       .  S
C334        C796   1.485       .  S
C334        C335   1.406       .  A
C334        C339   1.411       .  A
C335        C336   1.401       .  A
C335        H340   1.084       .  S
C336       C1300   1.476       .  S
C336        C337   1.395       .  A
C337        C338   1.405       .  A
C337        H341   1.084       .  S
C338        C709   1.502       .  S
C338        C339   1.409       .  A
C339        H342   1.080       .  S
C343        C748   1.477       .  S
C343        C344   1.402   1_655  A
C343        C348   1.408       .  A
C344        C345   1.393       .  A
C344        H349   1.084       .  S
C345       C1048   1.474       .  S
C345        C346   1.392   1_455  A
C346        C347   1.402       .  A
C346        H350   1.084       .  S
C347        C700   1.491       .  S
C347        C348   1.408       .  A
C348        H351   1.082       .  S
C352        C820   1.513       .  S
C352        C353   1.417   1_655  A
C352        C357   1.424       .  A
C353        C354   1.403       .  A
C353        H358   1.082       .  S
C354       C1105   1.471       .  S
C354        C355   1.387   1_455  A
C355        C356   1.384       .  A
C355        H359   1.085       .  S
C356        C685   1.487       .  S
C356        C357   1.409       .  A
C357        H360   1.079       .  S
O361        C372   1.286       .  A
O361       Eu397   2.425       .  S
O362        C373   1.298       .  A
O362       Eu396   2.495       .  S
O363        C374   1.294       .  A
O363       Eu369   2.484   1_556  S
O364        C375   1.296       .  A
O364       Eu369   2.483       .  S
O365        C375   1.288       .  A
O365       Eu399   2.443       .  S
O366        C374   1.281       .  A
O366       Eu398   2.418       .  S
O367        C373   1.290       .  A
O367       Eu369   2.442   1_556  S
O368        C372   1.299       .  A
O368       Eu369   2.499       .  S
Eu369       O379   2.347       .  S
Eu369       O371   2.352       .  S
Eu369       O370   2.379       .  S
Eu369       O377   2.402   1_554  S
O370       Eu399   2.341       .  S
O370       Eu396   2.358   1_554  S
O371       Eu397   2.381       .  S
O371       Eu398   2.340   1_554  S
C372       C1240   1.490       .  S
C373        C640   1.480       .  S
C374        C661   1.469       .  S
C375       C1216   1.480       .  S
H376        O377   0.965       .  S
O377       Eu398   2.327       .  S
O377       Eu396   2.396       .  S
H378        O379   0.965       .  S
O379       Eu397   2.335       .  S
O379       Eu399   2.347       .  S
O380        C403   1.329       .  A
O380       Eu396   2.710       .  S
O381        C404   1.280       .  A
O381       Eu397   2.403       .  S
O382        C405   1.310       .  A
O382       Eu398   2.596       .  S
O383        C406   1.291       .  A
O383       Eu399   2.468       .  S
O384        C407   1.289       .  A
O384       Eu399   2.453       .  S
O385        C408   1.294   1_556  A
O385       Eu398   2.487       .  S
O386        C409   1.291       .  A
O386       Eu400   2.471   1_556  S
O387        C410   1.299       .  A
O387       Eu400   2.506       .  S
O388        C409   1.283       .  A
O388       Eu398   2.441       .  S
O389        C410   1.280       .  A
O389       Eu399   2.387       .  S
O390        C405   1.290       .  A
O390       Eu396   2.541       .  S
O391        C408   1.289       .  A
O391       Eu397   2.442       .  S
O392        C407   1.297       .  A
O392       Eu397   2.498       .  S
O393        C406   1.288   1_556  A
O393       Eu396   2.452       .  S
O394        C403   1.280       .  A
O394       Eu400   2.480   1_556  S
O395        C404   1.296       .  A
O395       Eu400   2.497       .  S
Eu396       O414   2.364   1_556  S
Eu396       O402   2.376       .  S
Eu397       O401   2.369       .  S
Eu397       O412   2.393       .  S
Eu398       O412   2.395   1_556  S
Eu398       O402   2.397       .  S
Eu399       O401   2.391       .  S
Eu399       O414   2.400       .  S
Eu400       O401   2.321       .  S
Eu400       O412   2.373       .  S
Eu400       O414   2.386       .  S
Eu400       O402   2.409   1_554  S
C403        C613   1.539       .  S
C404        C697   1.472       .  S
C405        C832   1.530       .  S
C406        C649   1.479       .  S
C407        C625   1.485       .  S
C408        C676   1.503       .  S
C409        C688   1.480       .  S
C410        C841   1.491       .  S
H411        O412   0.966       .  S
H413        O414   0.965       .  S
C415        C616   1.460       .  S
C415        C416   1.395       .  A
C415        C420   1.411       .  A
C416        C417   1.384       .  A
C416        H421   1.076       .  S
C417        C952   1.455       .  S
C417        C418   1.384       .  A
C418        C419   1.398       .  A
C418        H422   1.086       .  S
C419        C808   1.475       .  S
C419        C420   1.411       .  A
C420        H423   1.083       .  S
C424        C628   1.493       .  S
C424        C425   1.411       .  A
C424        C429   1.412       .  A
C425        C426   1.406       .  A
C425        H430   1.083       .  S
C426        C877   1.477       .  S
C426        C427   1.394       .  A
C427        C428   1.396       .  A
C427        H431   1.084       .  S
C428        C733   1.492       .  S
C428        C429   1.409       .  A
C429        H432   1.083       .  S
C433        C652   1.493       .  S
C433        C434   1.405       .  A
C433        C438   1.418   1_554  A
C434        C435   1.395       .  A
C434        H439   1.084       .  S
C435       C1261   1.473       .  S
C435        C436   1.396       .  A
C436        C437   1.401   1_554  A
C436        H440   1.078       .  S
C437        C601   1.518       .  S
C437        C438   1.422       .  A
C438        H441   1.080       .  S
C442        C673   1.522       .  S
C442        C443   1.421       .  A
C442        C447   1.420   1_554  A
C443        C444   1.408       .  A
C443        H448   1.076       .  S
C444       C1336   1.482       .  S
C444        C445   1.390       .  A
C445        C446   1.387   1_554  A
C445        H449   1.086       .  S
C446        C589   1.469       .  S
C446        C447   1.401       .  A
C447        H450   1.081       .  S
O451        C462   1.287       .  A
O451       Eu487   2.434       .  S
O452        C463   1.286       .  A
O452       Eu486   2.432       .  S
O453        C464   1.293       .  A
O453       Eu459   2.455       .  S
O454        C465   1.298       .  A
O454       Eu459   2.483   1_545  S
O455        C465   1.284       .  A
O455       Eu489   2.428       .  S
O456        C464   1.289       .  A
O456       Eu488   2.448       .  S
O457        C463   1.295       .  A
O457       Eu459   2.479       .  S
O458        C462   1.292       .  A
O458       Eu459   2.454   1_545  S
Eu459       O469   2.336   1_565  S
Eu459       O461   2.362       .  S
Eu459       O460   2.350       .  S
Eu459       O467   2.345       .  S
O460       Eu489   2.354   1_565  S
O460       Eu486   2.352       .  S
O461       Eu487   2.353   1_565  S
O461       Eu488   2.352       .  S
C462        C988   1.469       .  S
C463        C592   1.473       .  S
C464        C976   1.484       .  S
C465        C604   1.497       .  S
H466        O467   0.966       .  S
O467       Eu488   2.357       .  S
O467       Eu486   2.350       .  S
H468        O469   0.965       .  S
O469       Eu487   2.355       .  S
O469       Eu489   2.338       .  S
O470        C493   1.285       .  A
O470       Eu486   2.427       .  S
O471        C494   1.288       .  A
O471       Eu487   2.438       .  S
O472        C495   1.293       .  A
O472       Eu488   2.473       .  S
O473        C496   1.291       .  A
O473       Eu489   2.453   1_565  S
O474        C497   1.293       .  A
O474       Eu489   2.463       .  S
O475        C498   1.292       .  A
O475       Eu488   2.462       .  S
O476        C499   1.293       .  A
O476       Eu490   2.460       .  S
O477        C500   1.293       .  A
O477       Eu490   2.470   1_545  S
O478        C499   1.290       .  A
O478       Eu488   2.451       .  S
O479        C500   1.287       .  A
O479       Eu489   2.433       .  S
O480        C495   1.292       .  A
O480       Eu486   2.471       .  S
O481        C498   1.293       .  A
O481       Eu487   2.474   1_565  S
O482        C497   1.294       .  A
O482       Eu487   2.483       .  S
O483        C496   1.291       .  A
O483       Eu486   2.464       .  S
O484        C493   1.296       .  A
O484       Eu490   2.483       .  S
O485        C494   1.294   1_565  A
O485       Eu490   2.470       .  S
Eu486       O504   2.353       .  S
Eu486       O492   2.350       .  S
Eu487       O491   2.355       .  S
Eu487       O502   2.358   1_545  S
Eu488       O502   2.355       .  S
Eu488       O492   2.352       .  S
Eu489       O491   2.352       .  S
Eu489       O504   2.341   1_545  S
Eu490       O491   2.363   1_565  S
Eu490       O502   2.347       .  S
Eu490       O504   2.325       .  S
Eu490       O492   2.360       .  S
C493        C724   1.471       .  S
C494        C853   1.488       .  S
C495        C541   1.484       .  S
C496        C577   1.477       .  S
C497        C553   1.491       .  S
C498        C565   1.487       .  S
C499        C712   1.480       .  S
C500        C865   1.494       .  S
H501        O502   0.965       .  S
H503        O504   0.964       .  S
C505        C544   1.490       .  S
C505        C506   1.412       .  A
C505        C510   1.410       .  A
C506        C507   1.406       .  A
C506        H511   1.083       .  S
C507       C1141   1.491       .  S
C507        C508   1.397       .  A
C508        C509   1.393       .  A
C508        H512   1.084       .  S
C509        C664   1.481       .  S
C509        C510   1.406       .  A
C510        H513   1.084       .  S
C514        C556   1.503       .  S
C514        C515   1.416       .  A
C514        C519   1.411       .  A
C515        C516   1.415       .  A
C515        H520   1.082       .  S
C516       C1081   1.504       .  S
C516        C517   1.405       .  A
C517        C518   1.399       .  A
C517        H521   1.083       .  S
C518        C637   1.484       .  S
C518        C519   1.399       .  A
C519        H522   1.083       .  S
C523        C568   1.496       .  S
C523        C524   1.412       .  A
C523        C528   1.412       .  A
C524        C525   1.405       .  A
C524        H529   1.083   1_565  S
C525        C904   1.477   1_565  S
C525        C526   1.394       .  A
C526        C527   1.391       .  A
C526        H530   1.086       .  S
C527        C784   1.471       .  S
C527        C528   1.401       .  A
C528        H531   1.083       .  S
C532        C580   1.484       .  S
C532        C533   1.411       .  A
C532        C537   1.412       .  A
C533        C534   1.401       .  A
C533        H538   1.082   1_565  S
C534        C928   1.489   1_565  S
C534        C535   1.396       .  A
C535        C536   1.394       .  A
C535        H539   1.085       .  S
C536        C760   1.485       .  S
C536        C537   1.405       .  A
C537        H540   1.083       .  S
C541        C542   1.405       .  A
C541        C546   1.411       .  A
C542        C543   1.409       .  A
C542        H547   1.085       .  S
C543        C544   1.415       .  A
C543        C550   1.443       .  S
C544        C545   1.401       .  A
C545        C546   1.397       .  A
C545        H548   1.085       .  S
C546        C549   1.437       .  S
C549        N551   1.154       .  T
C550        N552   1.157       .  T
C553        C554   1.403       .  A
C553        C558   1.413       .  A
C554        C555   1.398       .  A
C554        H559   1.086       .  S
C555        C556   1.419       .  A
C555        C562   1.445       .  S
C556        C557   1.411       .  A
C557        C558   1.411       .  A
C557        H560   1.084       .  S
C558        C561   1.442       .  S
C561        N563   1.157       .  T
C562        N564   1.157       .  T
C565        C566   1.404       .  A
C565        C570   1.413       .  A
C566        C567   1.399       .  A
C566        H571   1.085       .  S
C567        C568   1.416       .  A
C567        C574   1.442       .  S
C568        C569   1.407       .  A
C569        C570   1.405       .  A
C569        H572   1.084   1_565  S
C570        C573   1.440   1_565  S
C573        N575   1.156       .  T
C574        N576   1.156       .  T
C577        C578   1.402       .  A
C577        C582   1.411       .  A
C578        C579   1.391       .  A
C578        H583   1.086   1_565  S
C579        C580   1.412       .  A
C579        C586   1.445       .  S
C580        C581   1.408       .  A
C581        C582   1.408       .  A
C581        H584   1.084       .  S
C582        C585   1.443       .  S
C585        N587   1.157       .  T
C586        N588   1.157   1_565  T
C589        C590   1.398       .  A
C589        C594   1.407       .  A
C590        C591   1.395       .  A
C590        H595   1.086       .  S
C591        C592   1.409       .  A
C591        C598   1.437       .  S
C592        C593   1.406       .  A
C593        C594   1.401       .  A
C593        H596   1.085       .  S
C594        C597   1.443       .  S
C597        N599   1.157       .  T
C598        N600   1.154       .  T
C601        C602   1.410       .  A
C601        C606   1.434       .  A
C602        C603   1.407       .  A
C602        H607   1.082       .  S
C603        C604   1.420       .  A
C603        C610   1.444       .  S
C604        C605   1.396       .  A
C605        C606   1.395       .  A
C605        H608   1.086       .  S
C606        C609   1.443       .  S
C609        N611   1.157   1_556  T
C610        N612   1.157       .  T
C613        C614   1.708       .  A
C613        C618   1.645       .  A
C614        C615   1.743       .  A
C614        H619   1.082       .  S
C615        C616   1.727       .  A
C615        C622   1.438       .  S
C616        C617   1.708       .  A
C617        C618   2.567       .  A
C617        H620   1.094       .  S
C618        C621   1.476       .  S
C621        N623   1.147       .  T
C622        N624   1.157       .  T
C625        C626   1.405       .  A
C625        C630   1.412       .  A
C626        C627   1.409       .  A
C626        H631   1.085       .  S
C627        C628   1.415       .  A
C627        C634   1.443       .  S
C628        C629   1.403       .  A
C629        C630   1.402       .  A
C629        H632   1.085       .  S
C630        C633   1.442       .  S
C633        N635   1.157       .  T
C634        N636   1.157       .  T
C637        C638   1.401       .  A
C637        C642   1.412       .  A
C638        C639   1.396       .  A
C638        H643   1.085       .  S
C639        C640   1.412       .  A
C639        C646   1.443       .  S
C640        C641   1.406       .  A
C641        C642   1.408       .  A
C641        H644   1.084       .  S
C642        C645   1.443       .  S
C645        N647   1.157       .  T
C646        N648   1.156   1_556  T
C649        C650   1.405   1_554  A
C649        C654   1.407       .  A
C650        C651   1.403       .  A
C650        H655   1.084       .  S
C651        C652   1.413   1_556  A
C651        C658   1.443       .  S
C652        C653   1.410       .  A
C653        C654   1.404       .  A
C653        H656   1.085       .  S
C654        C657   1.444       .  S
C657        N659   1.157       .  T
C658        N660   1.157       .  T
C661        C662   1.400       .  A
C661        C666   1.408       .  A
C662        C663   1.399       .  A
C662        H667   1.085       .  S
C663        C664   1.415       .  A
C663        C670   1.445       .  S
C664        C665   1.406       .  A
C665        C666   1.402       .  A
C665        H668   1.085       .  S
C666        C669   1.444       .  S
C669        N671   1.157       .  T
C670        N672   1.157       .  T
C673        C674   1.417   1_554  A
C673        C678   1.426       .  A
C674        C675   1.405       .  A
C674        H679   1.081       .  S
C675        C676   1.413   1_556  A
C675        C682   1.443       .  S
C676        C677   1.407       .  A
C677        C678   1.402       .  A
C677        H680   1.085       .  S
C678        C681   1.443       .  S
C681        N683   1.158       .  T
C682        N684   1.157       .  T
C685        C686   1.399       .  A
C685        C690   1.425       .  A
C686        C687   1.401       .  A
C686        H691   1.085       .  S
C687        C688   1.418       .  A
C687        C694   1.439       .  S
C688        C689   1.397       .  A
C689        C690   1.391       .  A
C689        H692   1.086       .  S
C690        C693   1.446       .  S
C693        N695   1.157       .  T
C694        N696   1.155       .  T
C697        C698   1.402       .  A
C697        C702   1.406       .  A
C698        C699   1.401       .  A
C698        H703   1.084       .  S
C699        C700   1.418       .  A
C699        C706   1.443       .  S
C700        C701   1.408       .  A
C701        C702   1.395       .  A
C701        H704   1.085       .  S
C702        C705   1.440       .  S
C705        N707   1.155   1_554  T
C706        N708   1.157       .  T
C709        C710   1.411       .  A
C709        C714   1.420       .  A
C710        C711   1.397       .  A
C710        H715   1.085       .  S
C711        C712   1.409       .  A
C711        C718   1.445       .  S
C712        C713   1.403       .  A
C713        C714   1.402       .  A
C713        H716   1.085       .  S
C714        C717   1.441       .  S
C717        N719   1.157       .  T
C718        N720   1.157       .  T
C721        C722   1.404       .  A
C721        C726   1.409       .  A
C722        C723   1.394       .  A
C722        H727   1.085       .  S
C723        C724   1.407       .  A
C723        C730   1.442       .  S
C724        C725   1.405       .  A
C725        C726   1.403       .  A
C725        H728   1.085       .  S
C726        C729   1.443       .  S
C729        N731   1.157       .  T
C730        N732   1.156       .  T
C733        C734   1.403       .  A
C733        C738   1.421       .  A
C734        C735   1.404       .  A
C734        H739   1.085       .  S
C735        C736   1.421       .  A
C735        C742   1.444       .  S
C736        C737   1.400       .  A
C737        C738   1.393       .  A
C737        H740   1.085       .  S
C738        C741   1.444       .  S
C741        N743   1.157       .  T
C742        N744   1.158       .  T
C745        C746   1.397       .  A
C745        C750   1.410       .  A
C746        C747   1.393       .  A
C746        H751   1.086   1_655  S
C747        C748   1.416       .  A
C747        C754   1.446   1_655  S
C748        C749   1.403       .  A
C749        C750   1.402       .  A
C749        H752   1.085       .  S
C750        C753   1.442       .  S
C753        N755   1.157       .  T
C754        N756   1.157       .  T
C757        C758   1.409       .  A
C757        C762   1.405       .  A
C758        C759   1.405       .  A
C758        H763   1.085       .  S
C759        C760   1.409       .  A
C759        C766   1.442       .  S
C760        C761   1.409       .  A
C761        C762   1.391       .  A
C761        H764   1.085       .  S
C762        C765   1.445       .  S
C765        N767   1.157       .  T
C766        N768   1.157       .  T
C769        C770   1.406       .  A
C769        C774   1.413       .  A
C770        C771   1.409       .  A
C770        H775   1.084       .  S
C771        C772   1.412       .  A
C771        C778   1.442       .  S
C772        C773   1.399       .  A
C773        C774   1.396       .  A
C773        H776   1.085       .  S
C774        C777   1.443       .  S
C777        N779   1.156       .  T
C778        N780   1.157       .  T
C781        C782   1.396       .  A
C781        C786   1.412       .  A
C782        C783   1.394       .  A
C782        H787   1.080       .  S
C783        C784   1.411       .  A
C783        C790   1.445       .  S
C784        C785   1.402       .  A
C785        C786   1.403       .  A
C785        H788   1.084       .  S
C786        C789   1.445       .  S
C789        N791   1.157   1_455  T
C790        N792   1.157       .  T
C793        C794   1.402       .  A
C793        C798   1.415       .  A
C794        C795   1.396       .  A
C794        H799   1.086       .  S
C795        C796   1.410       .  A
C795        C802   1.443       .  S
C796        C797   1.405       .  A
C797        C798   1.407       .  A
C797        H800   1.084       .  S
C798        C801   1.443       .  S
C801        N803   1.157       .  T
C802        N804   1.156       .  T
C805        C806   1.410       .  A
C805        C810   1.423       .  A
C806        C807   1.405       .  A
C806        H811   1.081       .  S
C807        C808   1.406       .  A
C807        C814   1.443       .  S
C808        C809   1.399       .  A
C809        C810   1.391       .  A
C809        H812   1.085       .  S
C810        C813   1.446       .  S
C813        N815   1.158   1_655  T
C814        N816   1.157       .  T
C817        C818   1.404   1_655  A
C817        C822   1.417       .  A
C818        C819   1.406       .  A
C818        H823   1.085       .  S
C819        C820   1.424   1_455  A
C819        C826   1.444       .  S
C820        C821   1.409       .  A
C821        C822   1.401       .  A
C821        H824   1.081       .  S
C822        C825   1.443       .  S
C825        N827   1.157       .  T
C826        N828   1.157       .  T
C829        C830   1.724       .  A
C829        C834   2.683       .  A
C830        C831   1.715       .  A
C830        H835   1.082       .  S
C831        C832   1.738       .  A
C831        C838   1.440       .  S
C832        C833   1.719       .  A
C833        C834   1.726       .  A
C833        H836   1.083       .  S
C834        C837   1.473       .  S
C837        N839   1.156       .  T
C838        N840   1.157       .  T
C841        C842   1.419       .  A
C841        C846   1.408       .  A
C842        C843   1.402       .  A
C842        H847   1.084       .  S
C843        C844   1.406       .  A
C843        C850   1.444       .  S
C844        C845   1.415       .  A
C845        C846   1.393       .  A
C845        H848   1.081       .  S
C846        C849   1.445       .  S
C849        N851   1.157       .  T
C850        N852   1.157       .  T
C853        C854   1.411       .  A
C853        C858   1.413       .  A
C854        C855   1.401       .  A
C854        H859   1.083       .  S
C855        C856   1.407       .  A
C855        C862   1.444       .  S
C856        C857   1.407       .  A
C857        C858   1.397       .  A
C857        H860   1.085       .  S
C858        C861   1.445   1_545  S
C861        N863   1.157       .  T
C862        N864   1.157       .  T
C865        C866   1.414       .  A
C865        C870   1.415       .  A
C866        C867   1.404       .  A
C866        H871   1.084       .  S
C867        C868   1.409       .  A
C867        C874   1.442       .  S
C868        C869   1.409       .  A
C869        C870   1.394       .  A
C869        H872   1.084       .  S
C870        C873   1.446       .  S
C873        N875   1.158   1_545  T
C874        N876   1.157       .  T
C877        C878   1.402       .  A
C877        C882   1.413       .  A
C878        C879   1.403       .  A
C878        H883   1.084       .  S
C879        C880   1.413       .  A
C879        C886   1.444       .  S
C880        C881   1.398       .  A
C881        C882   1.399       .  A
C881        H884   1.081       .  S
C882        C885   1.445       .  S
C885        N887   1.157       .  T
C886        N888   1.157       .  T
C889        C890   1.403       .  A
C889        C894   1.412       .  A
C890        C891   1.407       .  A
C890        H895   1.085       .  S
C891        C892   1.412       .  A
C891        C898   1.444       .  S
C892        C893   1.401       .  A
C893        C894   1.400       .  A
C893        H896   1.085       .  S
C894        C897   1.444       .  S
C897        N899   1.157   1_655  T
C898        N900   1.157       .  T
C901        C902   1.401       .  A
C901        C906   1.407       .  A
C902        C903   1.400       .  A
C902        H907   1.085       .  S
C903        C904   1.413       .  A
C903        C910   1.444       .  S
C904        C905   1.405       .  A
C905        C906   1.398       .  A
C905        H908   1.085       .  S
C906        C909   1.444       .  S
C909        N911   1.157   1_455  T
C910        N912   1.157       .  T
C913        C914   1.402       .  A
C913        C918   1.410       .  A
C914        C915   1.399       .  A
C914        H919   1.085       .  S
C915        C916   1.411       .  A
C915        C922   1.445       .  S
C916        C917   1.406       .  A
C917        C918   1.407       .  A
C917        H920   1.084       .  S
C918        C921   1.443       .  S
C921        N923   1.157       .  T
C922        N924   1.157       .  T
C925        C926   1.406       .  A
C925        C930   1.409       .  A
C926        C927   1.401       .  A
C926        H931   1.085       .  S
C927        C928   1.414       .  A
C927        C934   1.441       .  S
C928        C929   1.409       .  A
C929        C930   1.389       .  A
C929        H932   1.085   1_545  S
C930        C933   1.446       .  S
C933        N935   1.158       .  T
C934        N936   1.157       .  T
C937        C938   1.408       .  A
C937        C942   1.414       .  A
C938        C939   1.401       .  A
C938        H943   1.085       .  S
C939        C940   1.410       .  A
C939        C946   1.443       .  S
C940        C941   1.407       .  A
C941        C942   1.399       .  A
C941        H944   1.085       .  S
C942        C945   1.444       .  S
C945        N947   1.157       .  T
C946        N948   1.157       .  T
C949        C950   1.397       .  A
C949        C954   1.406       .  A
C950        C951   1.384       .  A
C950        H955   1.086       .  S
C951        C952   1.408       .  A
C951        C958   1.446       .  S
C952        C953   1.401       .  A
C953        C954   1.398       .  A
C953        H956   1.084       .  S
C954        C957   1.442       .  S
C957        N959   1.157       .  T
C958        N960   1.157       .  T
C961        C962   1.418       .  A
C961        C966   1.419       .  A
C962        C963   1.423       .  A
C962        H967   1.084       .  S
C963        C964   1.423       .  A
C963        C970   1.442       .  S
C964        C965   1.421       .  A
C965        C966   1.421       .  A
C965        H968   1.082   1_655  S
C966        C969   1.442   1_655  S
C969        N971   1.157       .  T
C970        N972   1.157       .  T
C973        C974   1.403       .  A
C973        C978   1.415       .  A
C974        C975   1.408       .  A
C974        H979   1.084       .  S
C975        C976   1.419       .  A
C975        C982   1.444       .  S
C976        C977   1.400       .  A
C977        C978   1.388       .  A
C977        H980   1.083       .  S
C978        C981   1.448       .  S
C981        N983   1.157   1_556  T
C982        N984   1.157       .  T
C985        C986   1.403       .  A
C985        C990   1.403       .  A
C986        C987   1.387       .  A
C986        H991   1.085       .  S
C987        C988   1.409       .  A
C987        C994   1.444       .  S
C988        C989   1.407       .  A
C989        C990   1.401       .  A
C989        H992   1.080       .  S
C990        C993   1.443       .  S
C993        N995   1.157       .  T
C994        N996   1.157       .  T
C997        C998   1.403       .  A
C997       C1002   1.411       .  A
C998        C999   1.397       .  A
C998       H1003   1.085       .  S
C999       C1000   1.408       .  A
C999       C1006   1.444       .  S
C1000      C1001   1.400       .  A
C1001      C1002   1.399       .  A
C1001      H1004   1.085       .  S
C1002      C1005   1.444       .  S
C1005      N1007   1.157       .  T
C1006      N1008   1.157       .  T
C1009      C1010   1.405       .  A
C1009      C1014   1.419       .  A
C1010      C1011   1.402       .  A
C1010      H1015   1.084       .  S
C1011      C1012   1.416       .  A
C1011      C1018   1.443       .  S
C1012      C1013   1.400       .  A
C1013      C1014   1.401       .  A
C1013      H1016   1.085       .  S
C1014      C1017   1.445       .  S
C1017      N1019   1.157       .  T
C1018      N1020   1.157       .  T
C1021      C1022   1.400       .  A
C1021      C1026   1.417       .  A
C1022      C1023   1.395       .  A
C1022      H1027   1.085       .  S
C1023      C1024   1.411       .  A
C1023      C1030   1.439       .  S
C1024      C1025   1.396       .  A
C1025      C1026   1.393       .  A
C1025      H1028   1.083       .  S
C1026      C1029   1.446       .  S
C1029      N1031   1.157       .  T
C1030      N1032   1.155       .  T
C1033      C1034   1.396       .  A
C1033      C1038   1.416       .  A
C1034      C1035   1.397       .  A
C1034      H1039   1.085       .  S
C1035      C1036   1.419       .  A
C1035      C1042   1.444       .  S
C1036      C1037   1.398       .  A
C1037      C1038   1.392       .  A
C1037      H1040   1.085       .  S
C1038      C1041   1.446       .  S
C1041      N1043   1.157       .  T
C1042      N1044   1.157       .  T
C1045      C1046   1.407       .  A
C1045      C1050   1.410       .  A
C1046      C1047   1.398       .  A
C1046      H1051   1.081       .  S
C1047      C1048   1.405       .  A
C1047      C1054   1.444       .  S
C1048      C1049   1.405       .  A
C1049      C1050   1.392       .  A
C1049      H1052   1.085       .  S
C1050      C1053   1.444       .  S
C1053      N1055   1.157       .  T
C1054      N1056   1.157       .  T
C1057      C1058   1.397       .  A
C1057      C1062   1.421       .  A
C1058      C1059   1.396       .  A
C1058      H1063   1.083       .  S
C1059      C1060   1.416       .  A
C1059      C1066   1.445       .  S
C1060      C1061   1.393       .  A
C1061      C1062   1.397       .  A
C1061      H1064   1.085       .  S
C1062      C1065   1.442       .  S
C1065      N1067   1.156       .  T
C1066      N1068   1.157   1_455  T
C1069      C1070   1.406       .  A
C1069      C1074   1.420       .  A
C1070      C1071   1.409       .  A
C1070      H1075   1.084       .  S
C1071      C1072   1.418       .  A
C1071      C1078   1.444       .  S
C1072      C1073   1.402       .  A
C1073      C1074   1.399       .  A
C1073      H1076   1.085       .  S
C1074      C1077   1.443       .  S
C1077      N1079   1.156       .  T
C1078      N1080   1.157       .  T
C1081      C1082   1.408       .  A
C1081      C1086   1.420       .  A
C1082      C1083   1.406       .  A
C1082      H1087   1.084       .  S
C1083      C1084   1.413       .  A
C1083      C1090   1.441       .  S
C1084      C1085   1.403       .  A
C1085      C1086   1.402       .  A
C1085      H1088   1.085       .  S
C1086      C1089   1.445       .  S
C1089      N1091   1.157       .  T
C1090      N1092   1.156       .  T
C1093      C1094   1.404       .  A
C1093      C1098   1.405   1_554  A
C1094      C1095   1.394       .  A
C1094      H1099   1.085       .  S
C1095      C1096   1.408       .  A
C1095      C1102   1.445       .  S
C1096      C1097   1.407   1_554  A
C1097      C1098   1.401       .  A
C1097      H1100   1.085       .  S
C1098      C1101   1.443       .  S
C1101      N1103   1.157       .  T
C1102      N1104   1.157       .  T
C1105      C1106   1.405       .  A
C1105      C1110   1.412       .  A
C1106      C1107   1.397       .  A
C1106      H1111   1.085       .  S
C1107      C1108   1.406       .  A
C1107      C1114   1.443       .  S
C1108      C1109   1.399       .  A
C1109      C1110   1.397       .  A
C1109      H1112   1.080       .  S
C1110      C1113   1.445       .  S
C1113      N1115   1.157       .  T
C1114      N1116   1.156       .  T
C1117      C1118   1.408       .  A
C1117      C1122   1.417       .  A
C1118      C1119   1.414       .  A
C1118      H1123   1.084       .  S
C1119      C1120   1.416       .  A
C1119      C1126   1.439       .  S
C1120      C1121   1.414       .  A
C1121      C1122   1.424       .  A
C1121      H1124   1.084       .  S
C1122      C1125   1.441   1_455  S
C1125      N1127   1.157       .  T
C1126      N1128   1.156       .  T
C1129      C1130   1.404       .  A
C1129      C1134   1.419       .  A
C1130      C1131   1.409       .  A
C1130      H1135   1.084       .  S
C1131      C1132   1.424       .  A
C1131      C1138   1.443       .  S
C1132      C1133   1.406       .  A
C1133      C1134   1.390       .  A
C1133      H1136   1.081       .  S
C1134      C1137   1.448       .  S
C1137      N1139   1.157       .  T
C1138      N1140   1.157       .  T
C1141      C1142   1.404       .  A
C1141      C1146   1.418       .  A
C1142      C1143   1.405       .  A
C1142      H1147   1.084       .  S
C1143      C1144   1.421       .  A
C1143      C1150   1.444       .  S
C1144      C1145   1.402       .  A
C1145      C1146   1.390       .  A
C1145      H1148   1.085       .  S
C1146      C1149   1.446       .  S
C1149      N1151   1.157       .  T
C1150      N1152   1.157       .  T
C1153      C1154   1.404       .  A
C1153      C1158   1.413       .  A
C1154      C1155   1.407       .  A
C1154      H1159   1.085       .  S
C1155      C1156   1.413       .  A
C1155      C1162   1.439       .  S
C1156      C1157   1.405   1_554  A
C1157      C1158   1.404   1_556  A
C1157      H1160   1.083       .  S
C1158      C1161   1.444   1_554  S
C1161      N1163   1.157       .  T
C1162      N1164   1.156       .  T
C1165      C1166   1.409       .  A
C1165      C1170   1.417       .  A
C1166      C1167   1.394       .  A
C1166      H1171   1.085       .  S
C1167      C1168   1.408       .  A
C1167      C1174   1.441       .  S
C1168      C1169   1.406       .  A
C1169      C1170   1.404       .  A
C1169      H1172   1.085       .  S
C1170      C1173   1.441       .  S
C1173      N1175   1.157       .  T
C1174      N1176   1.156       .  T
C1177      C1178   1.406       .  A
C1177      C1182   1.407       .  A
C1178      C1179   1.397       .  A
C1178      H1183   1.085       .  S
C1179      C1180   1.405       .  A
C1179      C1186   1.444       .  S
C1180      C1181   1.403       .  A
C1181      C1182   1.393       .  A
C1181      H1184   1.085   1_545  S
C1182      C1185   1.444       .  S
C1185      N1187   1.157       .  T
C1186      N1188   1.157       .  T
C1189      C1190   1.402       .  A
C1189      C1194   1.407       .  A
C1190      C1191   1.396       .  A
C1190      H1195   1.085       .  S
C1191      C1192   1.406       .  A
C1191      C1198   1.439       .  S
C1192      C1193   1.405       .  A
C1193      C1194   1.402       .  A
C1193      H1196   1.085       .  S
C1194      C1197   1.443       .  S
C1197      N1199   1.157       .  T
C1198      N1200   1.155       .  T
C1201      C1202   1.405       .  A
C1201      C1206   1.406       .  A
C1202      C1203   1.403       .  A
C1202      H1207   1.085       .  S
C1203      C1204   1.414       .  A
C1203      C1210   1.444       .  S
C1204      C1205   1.406       .  A
C1205      C1206   1.392       .  A
C1205      H1208   1.085       .  S
C1206      C1209   1.441       .  S
C1209      N1211   1.156   1_455  T
C1210      N1212   1.158       .  T
C1213      C1214   1.404       .  A
C1213      C1218   1.418       .  A
C1214      C1215   1.402       .  A
C1214      H1219   1.084       .  S
C1215      C1216   1.414       .  A
C1215      C1222   1.442       .  S
C1216      C1217   1.401       .  A
C1217      C1218   1.399       .  A
C1217      H1220   1.085       .  S
C1218      C1221   1.445       .  S
C1221      N1223   1.157       .  T
C1222      N1224   1.156       .  T
C1225      C1226   1.402       .  A
C1225      C1230   1.417       .  A
C1226      C1227   1.395       .  A
C1226      H1231   1.085       .  S
C1227      C1228   1.415       .  A
C1227      C1234   1.446       .  S
C1228      C1229   1.401       .  A
C1229      C1230   1.401       .  A
C1229      H1232   1.085       .  S
C1230      C1233   1.444       .  S
C1233      N1235   1.157       .  T
C1234      N1236   1.157       .  T
C1237      C1238   1.408       .  A
C1237      C1242   1.409       .  A
C1238      C1239   1.398       .  A
C1238      H1243   1.085       .  S
C1239      C1240   1.411       .  A
C1239      C1246   1.443       .  S
C1240      C1241   1.412       .  A
C1241      C1242   1.406       .  A
C1241      H1244   1.084       .  S
C1242      C1245   1.443       .  S
C1245      N1247   1.157       .  T
C1246      N1248   1.157   1_554  T
C1249      C1250   1.409       .  A
C1249      C1254   1.409       .  A
C1250      C1251   1.407       .  A
C1250      H1255   1.085       .  S
C1251      C1252   1.408       .  A
C1251      C1258   1.443       .  S
C1252      C1253   1.403       .  A
C1253      C1254   1.397       .  A
C1253      H1256   1.086       .  S
C1254      C1257   1.439       .  S
C1257      N1259   1.155   1_554  T
C1258      N1260   1.157       .  T
C1261      C1262   1.400       .  A
C1261      C1266   1.410       .  A
C1262      C1263   1.407       .  A
C1262      H1267   1.084       .  S
C1263      C1264   1.420       .  A
C1263      C1270   1.443       .  S
C1264      C1265   1.397       .  A
C1265      C1266   1.389       .  A
C1265      H1268   1.078       .  S
C1266      C1269   1.447       .  S
C1269      N1271   1.157       .  T
C1270      N1272   1.157       .  T
C1273      C1274   1.409       .  A
C1273      C1278   1.405       .  A
C1274      C1275   1.393       .  A
C1274      H1279   1.085       .  S
C1275      C1276   1.413       .  A
C1275      C1282   1.445       .  S
C1276      C1277   1.415       .  A
C1277      C1278   1.401       .  A
C1277      H1280   1.084       .  S
C1278      C1281   1.443       .  S
C1281      N1283   1.157       .  T
C1282      N1284   1.157       .  T
C1285      C1286   1.396       .  A
C1285      C1290   1.413       .  A
C1286      C1287   1.395       .  A
C1286      H1291   1.085       .  S
C1287      C1288   1.409       .  A
C1287      C1294   1.435       .  S
C1288      C1289   1.406       .  A
C1289      C1290   1.412       .  A
C1289      H1292   1.083       .  S
C1290      C1293   1.442       .  S
C1293      N1295   1.157       .  T
C1294      N1296   1.153       .  T
C1297      C1298   1.403       .  A
C1297      C1302   1.406       .  A
C1298      C1299   1.403       .  A
C1298      H1303   1.085       .  S
C1299      C1300   1.410       .  A
C1299      C1306   1.444       .  S
C1300      C1301   1.403       .  A
C1301      C1302   1.397       .  A
C1301      H1304   1.085       .  S
C1302      C1305   1.442       .  S
C1305      N1307   1.157       .  T
C1306      N1308   1.157       .  T
C1309      C1310   1.401       .  A
C1309      C1314   1.411       .  A
C1310      C1311   1.401       .  A
C1310      H1315   1.085       .  S
C1311      C1312   1.417       .  A
C1311      C1318   1.445       .  S
C1312      C1313   1.405       .  A
C1313      C1314   1.399       .  A
C1313      H1316   1.085       .  S
C1314      C1317   1.444       .  S
C1317      N1319   1.157       .  T
C1318      N1320   1.157       .  T
C1321      C1322   1.406       .  A
C1321      C1326   1.419       .  A
C1322      C1323   1.408       .  A
C1322      H1327   1.085   1_565  S
C1323      C1324   1.419       .  A
C1323      C1330   1.443   1_565  S
C1324      C1325   1.403       .  A
C1325      C1326   1.392       .  A
C1325      H1328   1.084       .  S
C1326      C1329   1.445       .  S
C1329      N1331   1.157       .  T
C1330      N1332   1.157       .  T
C1333      C1334   1.399       .  A
C1333      C1338   1.408       .  A
C1334      C1335   1.398       .  A
C1334      H1339   1.084       .  S
C1335      C1336   1.414       .  A
C1335      C1342   1.444       .  S
C1336      C1337   1.406       .  A
C1337      C1338   1.403       .  A
C1337      H1340   1.085       .  S
C1338      C1341   1.441       .  S
C1341      N1343   1.156       .  T
C1342      N1344   1.157       .  T
C1345      C1346   1.403       .  A
C1345      C1350   1.406       .  A
C1346      C1347   1.403       .  A
C1346      H1351   1.085       .  S
C1347      C1348   1.416       .  A
C1347      C1354   1.444       .  S
C1348      C1349   1.411       .  A
C1349      C1350   1.400       .  A
C1349      H1352   1.085       .  S
C1350      C1353   1.445       .  S
C1353      N1355   1.157       .  T
C1354      N1356   1.157       .  T
C1357      C1358   1.406       .  A
C1357      C1362   1.411       .  A
C1358      C1359   1.405       .  A
C1358      H1363   1.085       .  S
C1359      C1360   1.410       .  A
C1359      C1366   1.443       .  S
C1360      C1361   1.405       .  A
C1361      C1362   1.409       .  A
C1361      H1364   1.085       .  S
C1362      C1365   1.438       .  S
C1365      N1367   1.156       .  T
C1366      N1368   1.157       .  T
C1369      C1370   1.406       .  A
C1369      C1374   1.409       .  A
C1370      C1371   1.403       .  A
C1370      H1375   1.085       .  S
C1371      C1372   1.414       .  A
C1371      C1378   1.442       .  S
C1372      C1373   1.409       .  A
C1373      C1374   1.394       .  A
C1373      H1376   1.085       .  S
C1374      C1377   1.444       .  S
C1377      N1379   1.157       .  T
C1378      N1380   1.157       .  T
C1381      C1382   1.395       .  A
C1381      C1386   1.413       .  A
C1382      C1383   1.390       .  A
C1382      H1387   1.083       .  S
C1383      C1384   1.414       .  A
C1383      C1390   1.447       .  S
C1384      C1385   1.400       .  A
C1385      C1386   1.403       .  A
C1385      H1388   1.084       .  S
C1386      C1389   1.442       .  S
C1389      N1391   1.157       .  T
C1390      N1392   1.157       .  T
C1393      C1394   1.402       .  A
C1393      C1398   1.409       .  A
C1394      C1395   1.393       .  A
C1394      H1399   1.086       .  S
C1395      C1396   1.407       .  A
C1395      C1402   1.443       .  S
C1396      C1397   1.406       .  A
C1397      C1398   1.406       .  A
C1397      H1400   1.085       .  S
C1398      C1401   1.442       .  S
C1401      N1403   1.157       .  T
C1402      N1404   1.156       .  T
