geometry optimzed in LAMMPS
_audit_creation_date              2020-11-30 
_audit_creation_method            'lammps2cif' 
_symmetry_space_group_name_H-M    'P1' 
_symmetry_Int_Tables_number       1 
_symmetry_cell_setting            triclinic 
loop_ 
_symmetry_equiv_pos_as_xyz 
  x,y,z 
_cell_length_a                    60.961185 
_cell_length_b                    60.9100032352611 
_cell_length_c                    60.948969304465905 
_cell_angle_alpha                 89.92697802462882 
_cell_angle_beta                  90.0467583633848 
_cell_angle_gamma                 90.07305717674873 
loop_ 
_atom_site_label 
_atom_site_type_symbol 
_atom_site_fract_x 
_atom_site_fract_y 
_atom_site_fract_z 
_atom_site_charge 
O1          O  0.12746449  0.09293428  0.39318917    -0.71200
O2          O  0.12391185  0.15517017  0.39277270    -0.71400
O3          O  0.09467170  0.12240157  0.39192065    -0.71300
O4          O  0.15686647  0.12596717  0.39399220    -0.71300
O5          O  0.15807862  0.12432206  0.35838472    -0.71200
O6          O  0.09577116  0.12360849  0.35634172    -0.71200
O7          O  0.12641903  0.15521132  0.35723517    -0.71200
O8          O  0.12727028  0.09273620  0.35757500    -0.71400
V9          V  0.12578836  0.12408701  0.39227603     1.35200
V10         V  0.12689695  0.12396271  0.35806330     1.35200
C11         C  0.12760295  0.08216568  0.37546023     0.78100
C12         C  0.12441305  0.16581285  0.37496252     0.78100
C13         C  0.08457654  0.12289852  0.37378807     0.78000
C14         C  0.16804179  0.12554146  0.37653770     0.77900
O15         O  0.13229090  0.84189614  0.39254472    -0.71200
O16         O  0.12952304  0.90439234  0.39466154    -0.71400
O17         O  0.09979700  0.87169602  0.39529717    -0.71300
O18         O  0.16191304  0.87446676  0.39216506    -0.71300
O19         O  0.16018160  0.87343623  0.35660527    -0.71200
O20         O  0.09783711  0.87518796  0.35986682    -0.71200
O21         O  0.12996680  0.90539672  0.35903594    -0.71200
O22         O  0.12811007  0.84314912  0.35716021    -0.71400
V23         V  0.13082925  0.87314590  0.39300101     1.35200
V24         V  0.12904495  0.87426836  0.35884463     1.35200
C25         C  0.13044158  0.83189822  0.37443911     0.78100
C26         C  0.12971580  0.91553508  0.37710700     0.78100
C27         C  0.08821323  0.87341167  0.37817706     0.78000
C28         C  0.17169057  0.87390639  0.37389621     0.77900
O29         O  0.87685985  0.16028686  0.39097899    -0.71200
O30         O  0.87652108  0.09805901  0.39109378    -0.71400
O31         O  0.90770458  0.12907746  0.39122759    -0.71300
O32         O  0.84529842  0.12936817  0.39068312    -0.71300
O33         O  0.84553000  0.13059765  0.35524025    -0.71200
O34         O  0.90781131  0.12786954  0.35559450    -0.71200
O35         O  0.87553395  0.09791836  0.35547749    -0.71200
O36         O  0.87784013  0.16042938  0.35552755    -0.71400
V37         V  0.87653723  0.12918542  0.39030060     1.35200
V38         V  0.87666567  0.12919261  0.35612687     1.35200
C39         C  0.87761968  0.17114559  0.37331841     0.78100
C40         C  0.87628168  0.08734377  0.37335683     0.78100
C41         C  0.91835018  0.12814099  0.37346612     0.78000
C42         C  0.83462334  0.13051474  0.37288087     0.77900
O43         O  0.91063632  0.87828625  0.40051089    -0.71200
O44         O  0.84825263  0.88119096  0.39808909    -0.71400
O45         O  0.87812502  0.84848588  0.40022985    -0.71300
O46         O  0.88075896  0.91089491  0.39843133    -0.71300
O47         O  0.88202562  0.90983307  0.36285401    -0.71200
O48         O  0.87927584  0.84757444  0.36458914    -0.71200
O49         O  0.84957743  0.87996506  0.36261938    -0.71200
O50         O  0.91181712  0.87732999  0.36495196    -0.71400
V51         V  0.87947101  0.87968685  0.39864100     1.35200
V52         V  0.88067080  0.87870429  0.36446233     1.35200
C53         C  0.92189603  0.87717383  0.38310728     0.78100
C54         C  0.83817778  0.88121164  0.37990896     0.78100
C55         C  0.87830964  0.83746680  0.38266616     0.78000
C56         C  0.88159721  0.92101547  0.38030996     0.77900
O57         O  0.13728574  0.40445438  0.37684203    -0.71200
O58         O  0.13553405  0.34205802  0.37841065    -0.71400
O59         O  0.13712988  0.37256737  0.34644757    -0.71300
O60         O  0.13575254  0.37394019  0.40869915    -0.71300
O61         O  0.10036932  0.37253711  0.40796962    -0.71200
O62         O  0.10164711  0.37585774  0.34558605    -0.71200
O63         O  0.10005651  0.34303841  0.37528160    -0.71200
O64         O  0.10176559  0.40541124  0.37811068    -0.71400
V65         V  0.13574859  0.37327718  0.37757149     1.35200
V66         V  0.10161314  0.37419860  0.37677564     1.35200
C67         C  0.11982124  0.41565443  0.37733947     0.78100
C68         C  0.11748361  0.33190703  0.37688169     0.78100
C69         C  0.11967495  0.37453555  0.33541386     0.78000
C70         C  0.11788862  0.37280937  0.41916026     0.77900
O71         O  0.13241694  0.39935729  0.62916558    -0.71200
O72         O  0.13302853  0.33708510  0.62699129    -0.71400
O73         O  0.13300765  0.36933573  0.59697215    -0.71300
O74         O  0.13231480  0.36710377  0.65930441    -0.71300
O75         O  0.09678152  0.36971162  0.65885446    -0.71200
O76         O  0.09752151  0.36594918  0.59653765    -0.71200
O77         O  0.09747722  0.33661091  0.62957397    -0.71200
O78         O  0.09693927  0.39908305  0.62569426    -0.71400
V79         V  0.13201625  0.36820879  0.62812281     1.35200
V80         V  0.09781935  0.36784568  0.62769853     1.35200
C81         C  0.11465814  0.40985128  0.62712247     0.78100
C82         C  0.11539663  0.32622577  0.62824626     0.78100
C83         C  0.11539566  0.36754995  0.58613343     0.78000
C84         C  0.11443456  0.36854695  0.66972075     0.77900
O85         O  0.14517488  0.62327514  0.39901466    -0.71200
O86         O  0.14502896  0.62282089  0.33642996    -0.71400
O87         O  0.14694263  0.65409968  0.36731571    -0.71300
O88         O  0.14351209  0.59179721  0.36838064    -0.71300
O89         O  0.10793915  0.59358534  0.36690979    -0.71200
O90         O  0.11138912  0.65596144  0.36886306    -0.71200
O91         O  0.10957823  0.62601641  0.33668124    -0.71200
O92         O  0.10958922  0.62379903  0.39891682    -0.71400
V93         V  0.14448757  0.62298499  0.36773876     1.35200
V94         V  0.11031896  0.62476979  0.36779343     1.35200
C95         C  0.12733404  0.62339540  0.40965557     0.78100
C96         C  0.12726081  0.62517099  0.32589478     0.78100
C97         C  0.12975883  0.66564014  0.36829879     0.78000
C98         C  0.12517194  0.58209217  0.36810125     0.77900
O99         O  0.10643805  0.58820443  0.61663912    -0.71200
O100        O  0.10857135  0.65035728  0.61990407    -0.71400
O101        O  0.10782374  0.62092510  0.58697019    -0.71300
O102        O  0.10725861  0.61787405  0.64933774    -0.71300
O103        O  0.14282900  0.61835744  0.64963569    -0.71200
O104        O  0.14328972  0.61773792  0.58721606    -0.71200
O105        O  0.14414815  0.64935294  0.61835288    -0.71200
O106        O  0.14176702  0.58672547  0.61892321    -0.71400
V107        V  0.10821661  0.61928367  0.61816225     1.35200
V108        V  0.14235527  0.61805536  0.61845501     1.35200
C109        C  0.12360191  0.57663426  0.61791986     0.78100
C110        C  0.12667897  0.66047145  0.61995115     0.78100
C111        C  0.12564399  0.61959307  0.57642743     0.78000
C112        C  0.12496796  0.61820554  0.66018107     0.77900
O113        O  0.62593826  0.14672060  0.40788518    -0.71200
O114        O  0.62519251  0.14604022  0.34546753    -0.71400
O115        O  0.59444918  0.14611839  0.37711198    -0.71300
O116        O  0.65660252  0.14676447  0.37634234    -0.71300
O117        O  0.65704234  0.11117543  0.37706039    -0.71200
O118        O  0.59459763  0.11067325  0.37683886    -0.71200
O119        O  0.62582687  0.11044983  0.34603803    -0.71200
O120        O  0.62558061  0.11102425  0.40818716    -0.71400
V121        V  0.62554370  0.14572524  0.37671148     1.35200
V122        V  0.62578333  0.11151528  0.37706743     1.35200
C123        C  0.62569531  0.12893507  0.41858096     0.78100
C124        C  0.62547781  0.12805647  0.33508244     0.78100
C125        C  0.58371201  0.12835530  0.37691021     0.78000
C126        C  0.66751129  0.12913976  0.37639616     0.77900
O127        O  0.62520070  0.14569642  0.59596142    -0.71200
O128        O  0.62397161  0.14562220  0.65824164    -0.71400
O129        O  0.65565226  0.14589421  0.62772753    -0.71300
O130        O  0.59340595  0.14557343  0.62662622    -0.71300
O131        O  0.59356903  0.10994463  0.62750137    -0.71200
O132        O  0.65587368  0.11031437  0.62691889    -0.71200
O133        O  0.62509482  0.10997112  0.65815019    -0.71200
O134        O  0.62432271  0.11027308  0.59591306    -0.71400
V135        V  0.62455379  0.14501343  0.62710240     1.35200
V136        V  0.62471145  0.11080701  0.62706464     1.35200
C137        C  0.62484815  0.12800988  0.58511327     0.78100
C138        C  0.62450995  0.12774523  0.66879129     0.78100
C139        C  0.66643763  0.12818412  0.62772075     0.78000
C140        C  0.58285221  0.12770929  0.62735460     0.77900
O141        O  0.34451821  0.11016932  0.38348109    -0.71200
O142        O  0.40679567  0.11027270  0.38038164    -0.71400
O143        O  0.37716504  0.10840047  0.41312314    -0.71300
O144        O  0.37416110  0.11192152  0.35100434    -0.71300
O145        O  0.37550978  0.14747486  0.35279872    -0.71200
O146        O  0.37592573  0.14395969  0.41513633    -0.71200
O147        O  0.40687926  0.14580437  0.38381225    -0.71200
O148        O  0.34466500  0.14583140  0.38403858    -0.71400
V149        V  0.37567587  0.11087521  0.38207561     1.35200
V150        V  0.37576064  0.14508111  0.38394242     1.35200
C151        C  0.33398298  0.12804466  0.38373540     0.78100
C152        C  0.41737849  0.12808796  0.38159209     0.78100
C153        C  0.37671051  0.12555652  0.42477020     0.78000
C154        C  0.37443505  0.13025042  0.34125024     0.77900
O155        O  0.34441508  0.10557841  0.63355102    -0.71200
O156        O  0.40663971  0.10728380  0.63353114    -0.71400
O157        O  0.37547024  0.10809614  0.66477052    -0.71300
O158        O  0.37560539  0.10486506  0.60248247    -0.71300
O159        O  0.37519752  0.14047281  0.60075089    -0.71200
O160        O  0.37395677  0.14367617  0.66291552    -0.71200
O161        O  0.40576253  0.14293558  0.63238255    -0.71200
O162        O  0.34342828  0.14106790  0.63145685    -0.71400
V163        V  0.37551183  0.10714839  0.63358420     1.35200
V164        V  0.37460232  0.14134671  0.63188526     1.35200
C165        C  0.33320778  0.12300256  0.63254160     0.78100
C166        C  0.41679464  0.12537085  0.63285331     0.78100
C167        C  0.37448198  0.12643749  0.67444529     0.78000
C168        C  0.37568404  0.12216675  0.59099831     0.77900
O169        O  0.89172334  0.62831554  0.40379589    -0.71200
O170        O  0.89381841  0.63050450  0.34140912    -0.71400
O171        O  0.89362363  0.66062201  0.37384463    -0.71300
O172        O  0.89210691  0.59835186  0.37160478    -0.71300
O173        O  0.85653112  0.59919053  0.37012864    -0.71200
O174        O  0.85797697  0.66148094  0.37283436    -0.71200
O175        O  0.85829161  0.63173023  0.34031271    -0.71200
O176        O  0.85617738  0.62879795  0.40252302    -0.71400
V177        V  0.89213524  0.62948616  0.37260194     1.35200
V178        V  0.85794337  0.63030321  0.37144588     1.35200
C179        C  0.87355576  0.62798294  0.41383480     0.78100
C180        C  0.87637218  0.63142126  0.33015613     0.78100
C181        C  0.87605503  0.67159377  0.37394189     0.78000
C182        C  0.87406746  0.58814262  0.37073793     0.77900
O183        O  0.89140578  0.62719464  0.59036918    -0.71200
O184        O  0.89326575  0.62530378  0.65271782    -0.71400
O185        O  0.89306010  0.59497992  0.62053476    -0.71300
O186        O  0.89161562  0.65738002  0.62263851    -0.71300
O187        O  0.85599891  0.65648896  0.62251939    -0.71200
O188        O  0.85752976  0.59410655  0.62240334    -0.71200
O189        O  0.85765267  0.62541197  0.65357539    -0.71200
O190        O  0.85583722  0.62523118  0.59133977    -0.71400
V191        V  0.89165762  0.62617479  0.62155405     1.35200
V192        V  0.85745517  0.62530737  0.62244313     1.35200
C193        C  0.87330554  0.62628856  0.58023892     0.78100
C194        C  0.87572241  0.62560693  0.66377193     0.78100
C195        C  0.87552502  0.58385834  0.62122685     0.78000
C196        C  0.87355107  0.66757004  0.62303157     0.77900
O197        O  0.85703319  0.38038694  0.40797567    -0.71200
O198        O  0.85621614  0.37983129  0.34560522    -0.71400
O199        O  0.85741324  0.34893090  0.37716609    -0.71300
O200        O  0.85601376  0.41127703  0.37625488    -0.71300
O201        O  0.89162858  0.41197963  0.37778440    -0.71200
O202        O  0.89272658  0.34982240  0.37467846    -0.71200
O203        O  0.89172084  0.38252106  0.34517220    -0.71200
O204        O  0.89260834  0.37927797  0.40750002    -0.71400
V205        V  0.85733480  0.38012804  0.37676969     1.35200
V206        V  0.89149542  0.38088512  0.37633023     1.35200
C207        C  0.87495445  0.37945225  0.41840906     0.78100
C208        C  0.87380397  0.38149441  0.33473590     0.78100
C209        C  0.87531936  0.33856255  0.37563166     0.78000
C210        C  0.87364351  0.42221798  0.37685360     0.77900
O211        O  0.89512792  0.40691680  0.62657310    -0.71200
O212        O  0.89557957  0.34468477  0.62656825    -0.71400
O213        O  0.89532437  0.37587570  0.59546451    -0.71300
O214        O  0.89523375  0.37568116  0.65787722    -0.71300
O215        O  0.85966131  0.37779071  0.65766218    -0.71200
O216        O  0.85978653  0.37322913  0.59547152    -0.71200
O217        O  0.85999477  0.34435583  0.62892900    -0.71200
O218        O  0.85958142  0.40665125  0.62414766    -0.71400
V219        V  0.89463450  0.37578397  0.62664654     1.35200
V220        V  0.86041624  0.37550713  0.62656960     1.35200
C221        C  0.87734345  0.41740832  0.62477536     0.78100
C222        C  0.87790992  0.33394632  0.62804792     0.78100
C223        C  0.87755710  0.37433202  0.58483644     0.78000
C224        C  0.87740361  0.37701482  0.66840113     0.77900
O225        O  0.34840792  0.84983114  0.37407761    -0.71200
O226        O  0.41089453  0.85010326  0.37273757    -0.71400
O227        O  0.38018914  0.84919482  0.40459893    -0.71300
O228        O  0.37895225  0.85063387  0.34219246    -0.71300
O229        O  0.38172433  0.88618028  0.34305098    -0.71200
O230        O  0.37722730  0.88473201  0.40528819    -0.71200
O231        O  0.41062083  0.88558025  0.37641308    -0.71200
O232        O  0.34851030  0.88544715  0.37198531    -0.71400
V233        V  0.37963498  0.85058854  0.37341852     1.35200
V234        V  0.37954971  0.88481006  0.37417050     1.35200
C235        C  0.33784640  0.86766177  0.37284046     0.78100
C236        C  0.42138544  0.86793761  0.37474562     0.78100
C237        C  0.37816416  0.86669710  0.41555499     0.78000
C238        C  0.38051783  0.86866074  0.33197565     0.77900
O239        O  0.34453942  0.84439352  0.62576680    -0.71200
O240        O  0.40667307  0.84993296  0.62114617    -0.71400
O241        O  0.37790883  0.84689406  0.65463559    -0.71300
O242        O  0.37337087  0.84736171  0.59232820    -0.71300
O243        O  0.37258626  0.88297353  0.59273340    -0.71200
O244        O  0.37259257  0.88215342  0.65502013    -0.71200
O245        O  0.40378079  0.88513570  0.62388375    -0.71200
O246        O  0.34159866  0.87987825  0.62386562    -0.71400
V247        V  0.37557235  0.84779490  0.62348348     1.35200
V248        V  0.37270974  0.88185556  0.62387534     1.35200
C249        C  0.33245516  0.86127049  0.62520792     0.78100
C250        C  0.41604285  0.86848620  0.62199720     0.78100
C251        C  0.37543230  0.86443168  0.66544226     0.78000
C252        C  0.37268733  0.86530748  0.58186280     0.77900
O253        O  0.59351326  0.86133406  0.61535684    -0.71200
O254        O  0.65568236  0.86059522  0.62006468    -0.71400
O255        O  0.62238542  0.85984236  0.64871090    -0.71300
O256        O  0.62707508  0.86224282  0.58660987    -0.71300
O257        O  0.62486187  0.89760003  0.58783927    -0.71200
O258        O  0.62517501  0.89538544  0.65004931    -0.71200
O259        O  0.65617317  0.89621344  0.61898580    -0.71200
O260        O  0.59372807  0.89678874  0.61920337    -0.71400
V261        V  0.62463274  0.86166686  0.61768568     1.35200
V262        V  0.62495875  0.89583666  0.61895101     1.35200
C263        C  0.58299269  0.87912928  0.61709545     0.78100
C264        C  0.66656453  0.87827899  0.62017657     0.78100
C265        C  0.62363412  0.87722381  0.65996769     0.78000
C266        C  0.62656489  0.88035216  0.57643014     0.77900
O267        O  0.62825347  0.90033560  0.39860295    -0.71200
O268        O  0.62905005  0.89779391  0.33637121    -0.71400
O269        O  0.59739363  0.89719574  0.36735021    -0.71300
O270        O  0.65987802  0.90074830  0.36795735    -0.71300
O271        O  0.66169843  0.86520165  0.36796589    -0.71200
O272        O  0.59949768  0.86177331  0.37016370    -0.71200
O273        O  0.62938880  0.86235487  0.33768917    -0.71200
O274        O  0.63182996  0.86486003  0.40007672    -0.71400
V275        V  0.62867990  0.89833971  0.36753671     1.35200
V276        V  0.63056333  0.86422493  0.36889589     1.35200
C277        C  0.63024312  0.88306242  0.40990783     0.78100
C278        C  0.62899188  0.87970117  0.32620707     0.78100
C279        C  0.58775034  0.87885181  0.36923116     0.78000
C280        C  0.67148687  0.88351813  0.36829228     0.77900
O281        O  0.12235956  0.83765335  0.61597633    -0.71200
O282        O  0.12673431  0.89995126  0.61801942    -0.71400
O283        O  0.15566130  0.86640981  0.61668653    -0.71300
O284        O  0.09355915  0.87119367  0.61706541    -0.71300
O285        O  0.09346656  0.86672360  0.65226895    -0.71200
O286        O  0.15607027  0.86851918  0.65226393    -0.71200
O287        O  0.12356961  0.89881102  0.65337610    -0.71200
O288        O  0.12576374  0.83645258  0.65143518    -0.71400
V289        V  0.12460794  0.86878910  0.61759493     1.35200
V290        V  0.12473986  0.86766059  0.65170979     1.35200
C291        C  0.12401791  0.82640734  0.63337408     0.78100
C292        C  0.12480404  0.91013977  0.63601283     0.78100
C293        C  0.16649246  0.86681756  0.63437103     0.78000
C294        C  0.08272403  0.86944619  0.63465886     0.77900
O295        O  0.15572981  0.11896411  0.61443846    -0.71200
O296        O  0.09346458  0.11621956  0.61356083    -0.71400
O297        O  0.12314863  0.14859642  0.61198396    -0.71300
O298        O  0.12593315  0.08634864  0.61588646    -0.71300
O299        O  0.12198283  0.08846474  0.65124845    -0.71200
O300        O  0.12608093  0.15070317  0.64745050    -0.71200
O301        O  0.09307786  0.12166092  0.64878293    -0.71200
O302        O  0.15516737  0.11758106  0.64987861    -0.71400
V303        V  0.12458854  0.11752726  0.61460538     1.35200
V304        V  0.12411184  0.11954682  0.64869924     1.35200
C305        C  0.16623169  0.11830981  0.63234695     0.78100
C306        C  0.08267099  0.11934281  0.63099088     0.78100
C307        C  0.12440239  0.16025675  0.62908358     0.78000
C308        C  0.12378115  0.07679441  0.63419861     0.77900
O309        O  0.90594806  0.12607034  0.61316890    -0.71200
O310        O  0.84372865  0.12555394  0.61442526    -0.71400
O311        O  0.87466127  0.15701001  0.61302565    -0.71300
O312        O  0.87503654  0.09463828  0.61448852    -0.71300
O313        O  0.87338617  0.09541474  0.65003922    -0.71200
O314        O  0.87776641  0.15770663  0.64852604    -0.71200
O315        O  0.84439401  0.12882846  0.64971603    -0.71200
O316        O  0.90650079  0.12441700  0.64878767    -0.71400
V317        V  0.87483726  0.12583134  0.61444584     1.35200
V318        V  0.87546938  0.12657080  0.64860991     1.35200
C319        C  0.91680325  0.12494510  0.63080841     0.78100
C320        C  0.83328094  0.12759030  0.63222087     0.78100
C321        C  0.87669230  0.16797686  0.63051162     0.78000
C322        C  0.87409194  0.08434129  0.63250025     0.77900
O323        O  0.84233122  0.87694287  0.64812735    -0.71200
O324        O  0.90455287  0.87392167  0.65079203    -0.71400
O325        O  0.87487142  0.90664487  0.65017304    -0.71300
O326        O  0.87194523  0.84423809  0.64869860    -0.71300
O327        O  0.87544181  0.84508138  0.61325747    -0.71200
O328        O  0.87433229  0.90744539  0.61454326    -0.71200
O329        O  0.90605656  0.87681600  0.61528695    -0.71200
O330        O  0.84382814  0.87570136  0.61253070    -0.71400
V331        V  0.87346122  0.87545804  0.64877896     1.35200
V332        V  0.87490519  0.87624860  0.61459031     1.35200
C333        C  0.83248767  0.87646786  0.62986532     0.78100
C334        C  0.91590478  0.87515549  0.63347874     0.78100
C335        C  0.87460883  0.91768613  0.63257609     0.78000
C336        C  0.87350078  0.83399915  0.63071456     0.77900
O337        O  0.35742722  0.12883069  0.16326818    -0.71200
O338        O  0.35857469  0.13103820  0.10075160    -0.71400
O339        O  0.35687561  0.09880976  0.13078685    -0.71300
O340        O  0.35874852  0.16099572  0.13316853    -0.71300
O341        O  0.39417523  0.16013392  0.13076670    -0.71200
O342        O  0.39228931  0.09766617  0.13449920    -0.71200
O343        O  0.39397401  0.12691932  0.10163610    -0.71200
O344        O  0.39286890  0.13089974  0.16379773    -0.71400
V345        V  0.35855990  0.12990174  0.13203433     1.35200
V346        V  0.39268295  0.12892852  0.13269740     1.35200
C347        C  0.37500612  0.13018969  0.17430029     0.78100
C348        C  0.37651393  0.12860573  0.09059215     0.78100
C349        C  0.37422035  0.08758783  0.13237724     0.78000
C350        C  0.37668314  0.17130861  0.13171016     0.77900
O351        O  0.35620528  0.08935244  0.88235604    -0.71200
O352        O  0.35514324  0.15187799  0.88301803    -0.71400
O353        O  0.35462004  0.12126478  0.85157993    -0.71300
O354        O  0.35674824  0.12025968  0.91383945    -0.71300
O355        O  0.39209467  0.11883462  0.91268936    -0.71200
O356        O  0.39010708  0.12372967  0.85057925    -0.71200
O357        O  0.39077213  0.15236593  0.88404538    -0.71200
O358        O  0.39168321  0.09013241  0.87917311    -0.71400
V359        V  0.35634464  0.12064803  0.88268916     1.35200
V360        V  0.39048986  0.12123396  0.88164350     1.35200
C361        C  0.37413878  0.07910666  0.88032561     0.78100
C362        C  0.37282184  0.16273132  0.88385580     0.78100
C363        C  0.37199238  0.12334126  0.84043935     0.78000
C364        C  0.37476458  0.11920557  0.92409134     0.77900
O365        O  0.35473645  0.83950948  0.87316485    -0.71200
O366        O  0.35615292  0.90196453  0.87262098    -0.71400
O367        O  0.35600793  0.87012077  0.84177338    -0.71300
O368        O  0.35481943  0.87119599  0.90416632    -0.71300
O369        O  0.39037914  0.86914519  0.90488086    -0.71200
O370        O  0.39164180  0.87078166  0.84249052    -0.71200
O371        O  0.39166632  0.90119807  0.87445875    -0.71200
O372        O  0.39035018  0.83886787  0.87259538    -0.71400
V373        V  0.35611110  0.87070802  0.87297327     1.35200
V374        V  0.39031572  0.87002355  0.87364276     1.35200
C375        C  0.37233179  0.82857256  0.87216565     0.78100
C376        C  0.37415395  0.91229798  0.87369877     0.78100
C377        C  0.37403900  0.87009985  0.83152949     0.78000
C378        C  0.37239711  0.87027216  0.91517212     0.77900
O379        O  0.39308515  0.91020122  0.12434505    -0.71200
O380        O  0.39407587  0.84783540  0.12143307    -0.71400
O381        O  0.39221964  0.88019278  0.09177415    -0.71300
O382        O  0.39514487  0.87745945  0.15409511    -0.71300
O383        O  0.35959988  0.87905496  0.15577232    -0.71200
O384        O  0.35677938  0.87750838  0.09331278    -0.71200
O385        O  0.35864729  0.84717699  0.12517718    -0.71200
O386        O  0.35766167  0.90948670  0.12366900    -0.71400
V387        V  0.39296520  0.87896490  0.12296664     1.35200
V388        V  0.35884362  0.87835588  0.12449064     1.35200
C389        C  0.37515039  0.92066611  0.12405272     0.78100
C390        C  0.37648858  0.83688933  0.12284565     0.78100
C391        C  0.37405542  0.87854816  0.08184156     0.78000
C392        C  0.37787853  0.87789672  0.16557987     0.77900
O393        O  0.87931586  0.36088175  0.15851406    -0.71200
O394        O  0.87891718  0.35847842  0.09610094    -0.71400
O395        O  0.91025386  0.36100131  0.12698800    -0.71300
O396        O  0.84815660  0.35815266  0.12755138    -0.71300
O397        O  0.84654492  0.39362891  0.12397210    -0.71200
O398        O  0.90888259  0.39640294  0.12775590    -0.71200
O399        O  0.87944445  0.39408928  0.09483794    -0.71200
O400        O  0.87579989  0.39629848  0.15695949    -0.71400
V401        V  0.87916422  0.36030578  0.12727242     1.35200
V402        V  0.87772102  0.39444502  0.12592050     1.35200
C403        C  0.87712875  0.37902110  0.16839018     0.78100
C404        C  0.87918897  0.37593821  0.08482030     0.78100
C405        C  0.92039463  0.37910093  0.12760422     0.78000
C406        C  0.83678760  0.37533588  0.12542943     0.77900
O407        O  0.90102042  0.39509439  0.87781945    -0.71200
O408        O  0.83869001  0.39309698  0.87598411    -0.71400
O409        O  0.86909999  0.39372762  0.90810636    -0.71300
O410        O  0.87078654  0.39461203  0.84572651    -0.71300
O411        O  0.86943513  0.35900711  0.84526136    -0.71200
O412        O  0.87258484  0.35826271  0.90762893    -0.71200
O413        O  0.83981992  0.35770095  0.87808042    -0.71200
O414        O  0.90196412  0.35955120  0.87487939    -0.71400
V415        V  0.86988070  0.39347351  0.87690046     1.35200
V416        V  0.87088839  0.35929838  0.87647028     1.35200
C417        C  0.91208117  0.37761793  0.87623282     0.78100
C418        C  0.82845729  0.37503837  0.87715023     0.78100
C419        C  0.87122437  0.37587850  0.91852063     0.78000
C420        C  0.87032256  0.37695946  0.83481956     0.77900
O421        O  0.09714500  0.36259042  0.12588508    -0.71200
O422        O  0.15935676  0.35986051  0.12849142    -0.71400
O423        O  0.12686765  0.36050612  0.15842706    -0.71300
O424        O  0.12952258  0.36215248  0.09605159    -0.71300
O425        O  0.12839124  0.39776808  0.09706741    -0.71200
O426        O  0.13113268  0.39590573  0.15929412    -0.71200
O427        O  0.16094323  0.39546191  0.12663469    -0.71200
O428        O  0.09858885  0.39804929  0.12963616    -0.71400
V429        V  0.12826913  0.36193831  0.12724889     1.35200
V430        V  0.12975224  0.39613051  0.12815762     1.35200
C431        C  0.08727613  0.38072690  0.12773195     0.78100
C432        C  0.17075015  0.37717694  0.12735330     0.78100
C433        C  0.12877272  0.37797336  0.16949627     0.78000
C434        C  0.12892858  0.38029273  0.08591332     0.77900
O435        O  0.15189777  0.39520539  0.87778240    -0.71200
O436        O  0.08958658  0.39527234  0.87698999    -0.71400
O437        O  0.12075132  0.39636490  0.90840397    -0.71300
O438        O  0.12096040  0.39414356  0.84591355    -0.71300
O439        O  0.12041525  0.35853016  0.84734402    -0.71200
O440        O  0.12072582  0.36075195  0.90965804    -0.71200
O441        O  0.08945708  0.35982049  0.87828758    -0.71200
O442        O  0.15167066  0.35968292  0.87859495    -0.71400
V443        V  0.12076430  0.39457409  0.87723652     1.35200
V444        V  0.12057643  0.36039681  0.87844453     1.35200
C445        C  0.16249189  0.37741090  0.87892864     0.78100
C446        C  0.07872972  0.37755094  0.87739095     0.78100
C447        C  0.12119516  0.37891703  0.91967949     0.78000
C448        C  0.12038460  0.37590182  0.83598133     0.77900
O449        O  0.60710193  0.84046351  0.11734689    -0.71200
O450        O  0.60502864  0.90277488  0.11731939    -0.71400
O451        O  0.60560774  0.87179899  0.08609953    -0.71300
O452        O  0.60660389  0.87177589  0.14850819    -0.71300
O453        O  0.64212147  0.87414584  0.14792304    -0.71200
O454        O  0.64125505  0.87167219  0.08565833    -0.71200
O455        O  0.64057486  0.90404196  0.11565123    -0.71200
O456        O  0.64270005  0.84168563  0.11809926    -0.71400
V457        V  0.60677410  0.87168115  0.11728868     1.35200
V458        V  0.64097545  0.87284195  0.11680751     1.35200
C459        C  0.62524192  0.83043319  0.11808167     0.78100
C460        C  0.62242692  0.91405665  0.11655205     0.78100
C461        C  0.62329670  0.87173392  0.07527585     0.78000
C462        C  0.62452736  0.87341862  0.15887598     0.77900
O463        O  0.64198673  0.86972384  0.83622063    -0.71200
O464        O  0.64174727  0.87061555  0.89857181    -0.71400
O465        O  0.64107233  0.83896586  0.86783031    -0.71300
O466        O  0.64286213  0.90126801  0.86699424    -0.71300
O467        O  0.60729178  0.90219578  0.86902153    -0.71200
O468        O  0.60551377  0.83986529  0.86540483    -0.71200
O469        O  0.60614848  0.86946180  0.89829141    -0.71200
O470        O  0.60647692  0.87287325  0.83619763    -0.71400
V471        V  0.64124480  0.87013120  0.86738885     1.35200
V472        V  0.60703320  0.87104617  0.86722385     1.35200
C473        C  0.62424064  0.87162174  0.82562949     0.78100
C474        C  0.62385302  0.87018180  0.90907059     0.78100
C475        C  0.62304472  0.82880521  0.86634116     0.78000
C476        C  0.62540527  0.91233718  0.86843927     0.77900
O477        O  0.60820856  0.08980770  0.87760798    -0.71200
O478        O  0.60833996  0.15223370  0.87673822    -0.71400
O479        O  0.60772047  0.12089178  0.84600609    -0.71300
O480        O  0.60878151  0.12151791  0.90824784    -0.71300
O481        O  0.64413906  0.11925918  0.90781312    -0.71200
O482        O  0.64321977  0.12261504  0.84549902    -0.71200
O483        O  0.64393129  0.15214497  0.87829383    -0.71200
O484        O  0.64358631  0.08982959  0.87497761    -0.71400
V485        V  0.60893462  0.12106388  0.87713825     1.35200
V486        V  0.64306109  0.12096104  0.87665430     1.35200
C487        C  0.62589071  0.07902993  0.87616357     0.78100
C488        C  0.62616453  0.16282725  0.87767939     0.78100
C489        C  0.62527469  0.12222773  0.83504405     0.78000
C490        C  0.62658046  0.12024476  0.91883309     0.77900
O491        O  0.60601101  0.12085751  0.15817106    -0.71200
O492        O  0.60659116  0.12374338  0.09586305    -0.71400
O493        O  0.60553736  0.09114469  0.12551150    -0.71300
O494        O  0.60697835  0.15335765  0.12843143    -0.71300
O495        O  0.64255873  0.15258927  0.12637708    -0.71200
O496        O  0.64106442  0.09023713  0.12811425    -0.71200
O497        O  0.64209910  0.12053595  0.09623820    -0.71200
O498        O  0.64162496  0.12236444  0.15841741    -0.71400
V499        V  0.60694652  0.12223702  0.12702257     1.35200
V500        V  0.64116186  0.12143801  0.12731561     1.35200
C501        C  0.62375603  0.12175788  0.16889862     0.78100
C502        C  0.62446746  0.12222088  0.08546709     0.78100
C503        C  0.62304085  0.08006934  0.12640915     0.78000
C504        C  0.62500120  0.16357578  0.12738242     0.77900
O505        O  0.13035615  0.65276706  0.14858664    -0.71200
O506        O  0.12855804  0.65077212  0.08626456    -0.71400
O507        O  0.09839573  0.65335589  0.11826590    -0.71300
O508        O  0.16074597  0.65003473  0.11651024    -0.71300
O509        O  0.15874350  0.61459764  0.12010139    -0.71200
O510        O  0.09664706  0.61773222  0.11702110    -0.71200
O511        O  0.12904200  0.61512826  0.08746861    -0.71200
O512        O  0.12614541  0.61737570  0.14970387    -0.71400
V513        V  0.12952080  0.65107376  0.11742540     1.35200
V514        V  0.12771466  0.61689185  0.11856420     1.35200
C515        C  0.12786055  0.63544597  0.15978325     0.78100
C516        C  0.12864489  0.63260345  0.07625024     0.78100
C517        C  0.08694587  0.63603751  0.11752056     0.78000
C518        C  0.17035837  0.63171547  0.11837806     0.77900
O519        O  0.15303441  0.64358060  0.86684343    -0.71200
O520        O  0.09069001  0.64339059  0.86871596    -0.71400
O521        O  0.12282811  0.64457478  0.89892289    -0.71300
O522        O  0.12099671  0.64237440  0.83660345    -0.71300
O523        O  0.12337110  0.60685290  0.83800009    -0.71200
O524        O  0.12048741  0.60902728  0.90021395    -0.71200
O525        O  0.09071793  0.60794436  0.86753638    -0.71200
O526        O  0.15308524  0.60809793  0.87067104    -0.71400
V527        V  0.12186360  0.64281754  0.86779975     1.35200
V528        V  0.12189608  0.60864625  0.86907696     1.35200
C529        C  0.16366913  0.62588448  0.86885944     0.78100
C530        C  0.07988141  0.62565419  0.86801065     0.78100
C531        C  0.12180568  0.62715695  0.91020693     0.78000
C532        C  0.12237351  0.62421484  0.82664580     0.77900
O533        O  0.90278616  0.64588019  0.87249179    -0.71200
O534        O  0.84038119  0.64657548  0.87069051    -0.71400
O535        O  0.87078382  0.64621944  0.90271487    -0.71300
O536        O  0.87251851  0.64639742  0.84053861    -0.71300
O537        O  0.86988789  0.61083436  0.84040282    -0.71200
O538        O  0.87254689  0.61060995  0.90277920    -0.71200
O539        O  0.84004833  0.61096320  0.87296487    -0.71200
O540        O  0.90223914  0.61027678  0.87013231    -0.71400
V541        V  0.87158521  0.64559267  0.87162760     1.35200
V542        V  0.87116503  0.61134327  0.87158637     1.35200
C543        C  0.91309706  0.62793046  0.87106090     0.78100
C544        C  0.82961157  0.62884114  0.87183241     0.78100
C545        C  0.87180136  0.62844352  0.91338109     0.78000
C546        C  0.87140498  0.62867408  0.82984233     0.77900
O547        O  0.87987966  0.61768069  0.15249301    -0.71200
O548        O  0.87702587  0.61697761  0.09029447    -0.71400
O549        O  0.90965948  0.61795729  0.11984687    -0.71300
O550        O  0.84752680  0.61676452  0.12279987    -0.71300
O551        O  0.84679062  0.65236993  0.12058062    -0.71200
O552        O  0.90918111  0.65337240  0.12132464    -0.71200
O553        O  0.87829362  0.65262048  0.08974845    -0.71200
O554        O  0.87779781  0.65316240  0.15223102    -0.71400
V555        V  0.87854863  0.61804068  0.12136298     1.35200
V556        V  0.87802144  0.65222912  0.12098734     1.35200
C557        C  0.87898479  0.63548279  0.16311666     0.78100
C558        C  0.87729748  0.63464780  0.07941462     0.78100
C559        C  0.92023010  0.63583337  0.12032580     0.78000
C560        C  0.83656927  0.63432415  0.12181123     0.77900
O561        O  0.37989438  0.41044871  0.14413706    -0.71200
O562        O  0.37804603  0.34827162  0.14298729    -0.71400
O563        O  0.41009360  0.37832584  0.14289290    -0.71300
O564        O  0.34770222  0.38016118  0.14410827    -0.71300
O565        O  0.34712364  0.37887910  0.10847648    -0.71200
O566        O  0.40939119  0.38096944  0.10732227    -0.71200
O567        O  0.37912274  0.34880640  0.10739227    -0.71200
O568        O  0.37741856  0.41119716  0.10860216    -0.71400
V569        V  0.37891463  0.37935064  0.14284897     1.35200
V570        V  0.37826683  0.37999401  0.10862505     1.35200
C571        C  0.37880472  0.42146409  0.12658965     0.78100
C572        C  0.37852066  0.33789085  0.12505612     0.78100
C573        C  0.42031655  0.37945922  0.12488160     0.78000
C574        C  0.33681404  0.37916158  0.12645629     0.77900
O575        O  0.34761028  0.63149567  0.13913643    -0.71200
O576        O  0.40999529  0.62891029  0.13793817    -0.71400
O577        O  0.38014227  0.66138151  0.13655222    -0.71300
O578        O  0.37774266  0.59928848  0.14065429    -0.71300
O579        O  0.37940421  0.59699935  0.10514419    -0.71200
O580        O  0.37676214  0.65925163  0.10111463    -0.71200
O581        O  0.40921464  0.62926086  0.10228944    -0.71200
O582        O  0.34693048  0.62669548  0.10382771    -0.71400
V583        V  0.37882899  0.63028124  0.13789834     1.35200
V584        V  0.37807169  0.62813379  0.10375541     1.35200
C585        C  0.33663622  0.62886141  0.12169502     0.78100
C586        C  0.42020432  0.62866638  0.11987886     0.78100
C587        C  0.37853776  0.67090520  0.11819000     0.78000
C588        C  0.37884550  0.58753360  0.12362505     0.77900
O589        O  0.59764167  0.62010382  0.13953034    -0.71200
O590        O  0.65997322  0.62315643  0.14060657    -0.71400
O591        O  0.62740518  0.65283193  0.14093007    -0.71300
O592        O  0.63031470  0.59043695  0.13936495    -0.71300
O593        O  0.62852578  0.59127828  0.10380538    -0.71200
O594        O  0.63026430  0.65373158  0.10542983    -0.71200
O595        O  0.66045102  0.62180002  0.10500782    -0.71200
O596        O  0.59817654  0.62343348  0.10424579    -0.71400
V597        V  0.62882879  0.62162862  0.13944842     1.35200
V598        V  0.62931833  0.62251564  0.10529456     1.35200
C599        C  0.58708815  0.62173554  0.12170442     0.78100
C600        C  0.67084370  0.62285321  0.12293315     0.78100
C601        C  0.62889174  0.66393958  0.12343965     0.78000
C602        C  0.62966325  0.58018053  0.12133697     0.77900
O603        O  0.66020331  0.36946799  0.10662803    -0.71200
O604        O  0.59801397  0.37328880  0.10664929    -0.71400
O605        O  0.63094483  0.40248729  0.10633511    -0.71300
O606        O  0.62716592  0.34019644  0.10688669    -0.71300
O607        O  0.62855399  0.34046468  0.14249528    -0.71200
O608        O  0.62972451  0.40285602  0.14188667    -0.71200
O609        O  0.59789226  0.37218937  0.14203340    -0.71200
O610        O  0.66023588  0.37111152  0.14222377    -0.71400
V611        V  0.62908913  0.37134990  0.10730923     1.35200
V612        V  0.62908917  0.37163897  0.14148574     1.35200
C613        C  0.67084347  0.36999891  0.12443724     0.78100
C614        C  0.58712267  0.37324819  0.12430021     0.78100
C615        C  0.63070183  0.41336928  0.12399889     0.78000
C616        C  0.62753293  0.32970688  0.12479721     0.77900
O617        O  0.34035789  0.62342056  0.88496429    -0.71200
O618        O  0.40262057  0.62008535  0.88544395    -0.71400
O619        O  0.37305236  0.65274526  0.88324964    -0.71300
O620        O  0.36991733  0.59065351  0.88712002    -0.71300
O621        O  0.37184823  0.58847004  0.85160211    -0.71200
O622        O  0.37156811  0.65079175  0.84775378    -0.71200
O623        O  0.40276656  0.61987296  0.84977789    -0.71200
O624        O  0.34039000  0.61940986  0.84952914    -0.71400
V625        V  0.37148150  0.62167860  0.88450644     1.35200
V626        V  0.37161122  0.61965657  0.85033684     1.35200
C627        C  0.32978723  0.62179977  0.86719023     0.78100
C628        C  0.41327447  0.61977500  0.86766327     0.78100
C629        C  0.37266352  0.66244092  0.86489303     0.78000
C630        C  0.37081717  0.57895104  0.87003220     0.77900
O631        O  0.59065823  0.61916142  0.88363578    -0.71200
O632        O  0.65273126  0.62253948  0.88396355    -0.71400
O633        O  0.62011119  0.65209128  0.88317700    -0.71300
O634        O  0.62293431  0.58968170  0.88418771    -0.71300
O635        O  0.61995470  0.58912062  0.84877677    -0.71200
O636        O  0.62346871  0.65148467  0.84770114    -0.71200
O637        O  0.65312362  0.61885364  0.84852760    -0.71200
O638        O  0.59057917  0.62181366  0.84825612    -0.71400
V639        V  0.62166592  0.62085640  0.88307256     1.35200
V640        V  0.62182360  0.62031294  0.84893847     1.35200
C641        C  0.57983796  0.62024343  0.86598865     0.78100
C642        C  0.66357534  0.62111027  0.86636426     0.78100
C643        C  0.62180957  0.66243267  0.86523400     0.78000
C644        C  0.62068635  0.57867611  0.86671434     0.77900
O645        O  0.65082978  0.37111047  0.85917689    -0.71200
O646        O  0.58862044  0.36906428  0.85847330    -0.71400
O647        O  0.61851935  0.40128417  0.85769940    -0.71300
O648        O  0.62088139  0.33900155  0.85997309    -0.71300
O649        O  0.61937589  0.34016971  0.89556079    -0.71200
O650        O  0.61944560  0.40252915  0.89333130    -0.71200
O651        O  0.58825181  0.37144090  0.89402831    -0.71200
O652        O  0.65053655  0.37139714  0.89474534    -0.71400
V653        V  0.61971234  0.37014293  0.85951988     1.35200
V654        V  0.61939168  0.37134147  0.89373168     1.35200
C655        C  0.66137178  0.37134860  0.87705670     0.78100
C656        C  0.57782655  0.37028104  0.87611982     0.78100
C657        C  0.61864839  0.41248796  0.87514750     0.78000
C658        C  0.62055942  0.32897435  0.87814599     0.77900
O659        O  0.37132626  0.40277602  0.89798516    -0.71200
O660        O  0.37072909  0.34037493  0.90017507    -0.71400
O661        O  0.40208671  0.37129787  0.89790363    -0.71300
O662        O  0.33989224  0.37187953  0.90017861    -0.71300
O663        O  0.33862243  0.36989121  0.86465628    -0.71200
O664        O  0.40071173  0.37097459  0.86230341    -0.71200
O665        O  0.37041346  0.33918914  0.86454888    -0.71200
O666        O  0.36899319  0.40154093  0.86243315    -0.71400
V667        V  0.37097117  0.37155185  0.89837945     1.35200
V668        V  0.36969430  0.37040646  0.86418238     1.35200
C669        C  0.37009850  0.41277382  0.87982924     0.78100
C670        C  0.37083019  0.32916047  0.88272837     0.78100
C671        C  0.41200233  0.37114536  0.87969324     0.78000
C672        C  0.32862398  0.37103400  0.88277473     0.77900
C673        C  0.51887074  0.38641684  0.88859256    -0.04900
C674        C  0.50711833  0.37087800  0.87612371     0.09300
C675        C  0.51848342  0.35545855  0.86320501    -0.02300
C676        C  0.54161374  0.35537725  0.86294628    -0.00500
C677        C  0.55348490  0.37062288  0.87584550    -0.04100
C678        C  0.54198196  0.38631313  0.88848633     0.02900
C679        C  0.48265285  0.37069330  0.87676455     0.09700
C680        C  0.50627404  0.33958284  0.85032107     0.35600
C681        C  0.55386423  0.40291959  0.90076289     0.39100
C682        C  0.47059213  0.38425089  0.86241953    -0.04500
C683        C  0.44749685  0.38450923  0.86340783     0.02700
C684        C  0.43632694  0.37104059  0.87871831    -0.04100
C685        C  0.44851837  0.35729929  0.89294715    -0.00300
C686        C  0.47161023  0.35717921  0.89196215    -0.02900
C687        C  0.48204684  0.39797610  0.84667623     0.36400
C688        C  0.43736316  0.34272064  0.90815110     0.40000
C689        C  0.43534243  0.39919971  0.84911853     0.39100
C690        C  0.48410314  0.34305875  0.90651244     0.36000
C691        C  0.50707894  0.40255496  0.90148733     0.36700
C692        C  0.55311605  0.33920603  0.84983421     0.40000
N693        N  0.42564056  0.41091409  0.83773154    -0.38100
N694        N  0.49122945  0.40888703  0.83411989    -0.39700
N695        N  0.42844620  0.33110002  0.92026086    -0.37400
N696        N  0.49410725  0.33177831  0.91806828    -0.39800
N697        N  0.49645731  0.32693037  0.84010413    -0.39600
N698        N  0.56227734  0.32634519  0.83931453    -0.37200
N699        N  0.56334150  0.41621806  0.91047155    -0.38300
N700        N  0.49760654  0.41542664  0.91170974    -0.39900
C701        C  0.62530951  0.51771364  0.85167723    -0.04900
C702        C  0.61600461  0.50765194  0.87030706     0.09300
C703        C  0.60693831  0.52074508  0.88700916    -0.02300
C704        C  0.60804253  0.54386229  0.88560545    -0.00500
C705        C  0.61843581  0.55416756  0.86744018    -0.04100
C706        C  0.62622155  0.54082960  0.85001632     0.02900
C707        C  0.61611162  0.48315808  0.87240190     0.09700
C708        C  0.59635972  0.51032576  0.90562897     0.35600
C709        C  0.63503739  0.55059670  0.83018435     0.39100
C710        C  0.63396044  0.47255587  0.88266150    -0.04500
C711        C  0.63482299  0.44942715  0.88354951     0.02700
C712        C  0.61771712  0.43678113  0.87432976    -0.04100
C713        C  0.59960523  0.44740738  0.86449646    -0.00300
C714        C  0.59880093  0.47054851  0.86357030    -0.02900
C715        C  0.65146187  0.48554504  0.89224294     0.36400
C716        C  0.58154029  0.43452962  0.85581322     0.40000
C717        C  0.65370544  0.43862654  0.89322913     0.39100
C718        C  0.58011287  0.48144915  0.85367271     0.36000
C719        C  0.63413089  0.50412193  0.83425233     0.36700
C720        C  0.59738523  0.55692007  0.90240234     0.40000
N721        N  0.66879805  0.42997793  0.90084839    -0.38100
N722        N  0.66533096  0.49599774  0.89994287    -0.39700
N723        N  0.56712048  0.42423416  0.84894968    -0.37400
N724        N  0.56516334  0.49015914  0.84584943    -0.39800
N725        N  0.58786837  0.50199118  0.92043817    -0.39600
N726        N  0.58875359  0.56732182  0.91571730    -0.37200
N727        N  0.64175092  0.55815125  0.81409679    -0.38300
N728        N  0.64116392  0.49319660  0.82042928    -0.39900
C729        C  0.35520294  0.52056261  0.88630674    -0.04900
C730        C  0.37069003  0.50814523  0.87439566     0.09300
C731        C  0.38624117  0.51901687  0.86108367    -0.02300
C732        C  0.38643256  0.54215167  0.85982210    -0.00500
C733        C  0.37080433  0.55460068  0.87159073    -0.04100
C734        C  0.35523700  0.54368740  0.88491565     0.02900
C735        C  0.37055796  0.48356762  0.87585052     0.09700
C736        C  0.40197202  0.50633047  0.84855454     0.35600
C737        C  0.33881461  0.55618582  0.89674733     0.39100
C738        C  0.35406910  0.47135705  0.86506562    -0.04500
C739        C  0.35358701  0.44826616  0.86685596     0.02700
C740        C  0.37002631  0.43713946  0.87886271    -0.04100
C741        C  0.38662025  0.44935617  0.88954152    -0.00300
C742        C  0.38678620  0.47249391  0.88816087    -0.02900
C743        C  0.33770305  0.48261190  0.85193649     0.36400
C744        C  0.40395162  0.43810424  0.90138090     0.40000
C745        C  0.33564445  0.43602597  0.85706656     0.39100
C746        C  0.40375886  0.48495657  0.89928648     0.36000
C747        C  0.33908655  0.50947376  0.89988973     0.36700
C748        C  0.40330495  0.55313914  0.84708077     0.40000
N749        N  0.32124519  0.42625420  0.84943896    -0.38100
N750        N  0.32469688  0.49165948  0.84146244    -0.39700
N751        N  0.41778750  0.42909397  0.91076885    -0.37400
N752        N  0.41734946  0.49493142  0.90804588    -0.44600
N753        N  0.41452712  0.49618339  0.83859203    -0.39600
N754        N  0.41683476  0.56192443  0.83704599    -0.37200
N755        N  0.32571658  0.56618118  0.90615363    -0.38300
N756        N  0.32614242  0.50059312  0.91058605    -0.39900
C757        C  0.47218425  0.60154850  0.87725056    -0.04900
C758        C  0.48395200  0.61866619  0.86694471     0.09300
C759        C  0.47249123  0.63629539  0.85722826    -0.02300
C760        C  0.44936574  0.63670565  0.85759071    -0.00500
C761        C  0.43756931  0.61948233  0.86770711    -0.04100
C762        C  0.44904244  0.60199068  0.87771609     0.02900
C763        C  0.50851039  0.61849676  0.86681992     0.09700
C764        C  0.48458614  0.65417974  0.84715768     0.35600
C765        C  0.43703633  0.58422801  0.88811907     0.39100
C766        C  0.52001870  0.61178119  0.84796368    -0.04500
C767        C  0.54318369  0.61246121  0.84752648     0.02700
C768        C  0.55518568  0.61953646  0.86626044    -0.04100
C769        C  0.54333219  0.62551741  0.88548019    -0.00300
C770        C  0.52019062  0.62531730  0.88553126    -0.02900
C771        C  0.50788662  0.60385501  0.82906211     0.36400
C772        C  0.55460226  0.63204861  0.90542155     0.40000
C773        C  0.55441600  0.60513159  0.82787587     0.39100
C774        C  0.50824446  0.63231340  0.90489913     0.36000
C775        C  0.48396182  0.58348574  0.88734122     0.36700
C776        C  0.43771155  0.65529898  0.84832290     0.40000
N777        N  0.56325808  0.59928938  0.81213545    -0.38100
N778        N  0.49816287  0.59746134  0.81405220    -0.39700
N779        N  0.56343874  0.63716228  0.92144333    -0.37400
N780        N  0.49869241  0.63788045  0.92031501    -0.39800
N781        N  0.49430729  0.66841303  0.83914762    -0.39600
N782        N  0.42839062  0.67017390  0.84106140    -0.37200
N783        N  0.42746480  0.57006493  0.89643444    -0.38300
N784        N  0.49341914  0.56913288  0.89542835    -0.39900
C785        C  0.61625336  0.52043091  0.10747533    -0.04900
C786        C  0.63119474  0.50909949  0.12103844     0.09300
C787        C  0.64607220  0.52104214  0.13413939    -0.02300
C788        C  0.64575941  0.54422233  0.13402905    -0.00500
C789        C  0.63041110  0.55569749  0.12086656    -0.04100
C790        C  0.61577762  0.54362280  0.10743018     0.02900
C791        C  0.63110785  0.48450006  0.12179003     0.09700
C792        C  0.66182378  0.50936005  0.14763848     0.35600
C793        C  0.59962636  0.55492132  0.09411206     0.39100
C794        C  0.64392373  0.47235526  0.10689217    -0.04500
C795        C  0.64420894  0.44919091  0.10790894     0.02700
C796        C  0.63128912  0.43789999  0.12364475    -0.04100
C797        C  0.61855372  0.45023238  0.13868545    -0.00300
C798        C  0.61847984  0.47339865  0.13769647    -0.02900
C799        C  0.65681386  0.48380105  0.09046837     0.36400
C800        C  0.60501319  0.43922424  0.15489873     0.40000
C801        C  0.65853077  0.43710646  0.09325716     0.39100
C802        C  0.60517158  0.48592240  0.15291652     0.36000
C803        C  0.60130048  0.50812820  0.09361825     0.36700
C804        C  0.66177831  0.55621782  0.14694202     0.40000
N805        N  0.67002377  0.42747325  0.08163856    -0.38100
N806        N  0.66701230  0.49297919  0.07732805    -0.39700
N807        N  0.59426022  0.43050023  0.16790833    -0.37400
N808        N  0.59453693  0.49594247  0.16501117    -0.39800
N809        N  0.67437723  0.49995171  0.15834328    -0.39600
N810        N  0.67459844  0.56579255  0.15718531    -0.37200
N811        N  0.58663899  0.56375235  0.08344665    -0.38300
N812        N  0.58944499  0.49827767  0.08251473    -0.39900
C813        C  0.52750930  0.61795380  0.10098902    -0.04900
C814        C  0.51553479  0.62319050  0.12002968     0.09300
C815        C  0.52684859  0.62742984  0.13975807    -0.02300
C816        C  0.54999504  0.62639670  0.14054143    -0.00500
C817        C  0.56233824  0.62184227  0.12123884    -0.04100
C818        C  0.55068431  0.61764138  0.10139347     0.02900
C819        C  0.49091951  0.62427389  0.11935061     0.09700
C820        C  0.51454672  0.63309807  0.15933888     0.35600
C821        C  0.56218739  0.61277914  0.08114304     0.39100
C822        C  0.47823051  0.60788631  0.12977493    -0.04500
C823        C  0.45514005  0.60944172  0.13006068     0.02700
C824        C  0.44449921  0.62708955  0.11938816    -0.04100
C825        C  0.45712851  0.64294582  0.10810729    -0.00300
C826        C  0.48026152  0.64176061  0.10842357    -0.02900
C827        C  0.48897828  0.58924287  0.13998023     0.36400
C828        C  0.44635415  0.66073582  0.09650326     0.40000
C829        C  0.44229887  0.59240992  0.14070445     0.39100
C830        C  0.49314775  0.65866138  0.09766153     0.36000
C831        C  0.51584851  0.61269563  0.08087958     0.36700
C832        C  0.56075864  0.63033725  0.16141988     0.40000
N833        N  0.43208442  0.57878954  0.14915826    -0.38100
N834        N  0.49757500  0.57438414  0.14811525    -0.39700
N835        N  0.43775909  0.67487718  0.08716936    -0.37400
N836        N  0.50346980  0.67206546  0.08899950    -0.39800
N837        N  0.50470485  0.63754150  0.17494166    -0.39600
N838        N  0.56913322  0.63336645  0.17819802    -0.37200
N839        N  0.57116887  0.60906132  0.06483976    -0.38300
N840        N  0.50653673  0.60854706  0.06485734    -0.39900
C841        C  0.52718823  0.37849326  0.14371148    -0.04900
C842        C  0.51556647  0.37625192  0.12386958     0.09300
C843        C  0.52715857  0.37313535  0.10416559    -0.02300
C844        C  0.55032127  0.37238013  0.10415832    -0.00500
C845        C  0.56235876  0.37440765  0.12415347    -0.04100
C846        C  0.55034758  0.37755823  0.14397787     0.02900
C847        C  0.49097670  0.37701641  0.12377403     0.09700
C848        C  0.51508374  0.37043651  0.08379384     0.35600
C849        C  0.56143146  0.38014163  0.16490209     0.39100
C850        C  0.47990280  0.39598977  0.11634172    -0.04500
C851        C  0.45675687  0.39671131  0.11640699     0.02700
C852        C  0.44458576  0.37863484  0.12434046    -0.04100
C853        C  0.45564216  0.35960992  0.13162077    -0.00300
C854        C  0.47875743  0.35874713  0.13118056    -0.02900
C855        C  0.49238441  0.41483459  0.10882225     0.36400
C856        C  0.44319926  0.34064709  0.13895306     0.40000
C857        C  0.44546025  0.41622036  0.10872459     0.39100
C858        C  0.49003222  0.33897217  0.13815245     0.36000
C859        C  0.51514612  0.38180122  0.16398895     0.36700
C860        C  0.56136077  0.36941132  0.08328138     0.40000
N861        N  0.43642633  0.43175215  0.10255760    -0.38100
N862        N  0.50239040  0.42982858  0.10279216    -0.39700
N863        N  0.43329371  0.32549713  0.14475786    -0.37400
N864        N  0.49907359  0.32322356  0.14371788    -0.39800
N865        N  0.50543661  0.36830842  0.06757289    -0.39600
N866        N  0.56999530  0.36713856  0.06652984    -0.37200
N867        N  0.57006927  0.38217935  0.18169903    -0.38300
N868        N  0.50549309  0.38433583  0.18012842    -0.39900
C869        C  0.39470019  0.48022151  0.14132994    -0.04900
C870        C  0.38032305  0.49232873  0.12785512     0.09300
C871        C  0.36536189  0.48127028  0.11409608    -0.02300
C872        C  0.36467767  0.45813941  0.11383351    -0.00500
C873        C  0.37924973  0.44587255  0.12712356    -0.04100
C874        C  0.39429767  0.45706308  0.14089122     0.02900
C875        C  0.38096051  0.51684629  0.12786800     0.09700
C876        C  0.35068618  0.49382128  0.10015742     0.35600
C877        C  0.40995357  0.44484346  0.15404045     0.39100
C878        C  0.39526535  0.52807576  0.11356717    -0.04500
C879        C  0.39477403  0.55118400  0.11235639     0.02700
C880        C  0.37974352  0.56321111  0.12532081    -0.04100
C881        C  0.36581021  0.55188502  0.14008113    -0.00300
C882        C  0.36656191  0.52878264  0.14143132    -0.02900
C883        C  0.41047246  0.51574756  0.10006957     0.36400
C884        C  0.35008321  0.56385424  0.15331815     0.40000
C885        C  0.41027588  0.56254838  0.09827540     0.39100
C886        C  0.35243596  0.51718281  0.15669479     0.36000
C887        C  0.40998118  0.49168103  0.15554963     0.36700
C888        C  0.34843021  0.44705064  0.10040356     0.40000
N889        N  0.42270333  0.57162645  0.08713328    -0.38100
N890        N  0.42260772  0.50585882  0.08935846    -0.39700
N891        N  0.33752702  0.57340859  0.16385133    -0.37400
N892        N  0.34125624  0.50788637  0.16892178    -0.39800
N893        N  0.33905798  0.50393317  0.08905188    -0.39600
N894        N  0.33542646  0.43821427  0.08974154    -0.37200
N895        N  0.42248096  0.43509936  0.16448101    -0.38300
N896        N  0.42214000  0.50086061  0.16689507    -0.39900
C897        C  0.77684483  0.64147803  0.10498653    -0.04900
C898        C  0.76599363  0.63001473  0.12195987     0.09300
C899        C  0.77831408  0.62037031  0.13903742    -0.02300
C900        C  0.80136291  0.62218991  0.13919217    -0.00500
C901        C  0.81227260  0.63354031  0.12215632    -0.04100
C902        C  0.79993656  0.64328300  0.10508900     0.02900
C903        C  0.74150508  0.62821856  0.12205810     0.09700
C904        C  0.76720728  0.60840470  0.15637313     0.35600
C905        C  0.81102042  0.65447600  0.08721963     0.39100
C906        C  0.73089094  0.61229582  0.10902268    -0.04500
C907        C  0.70783318  0.61023593  0.10958785     0.02700
C908        C  0.69520490  0.62424116  0.12310437    -0.04100
C909        C  0.70593215  0.64014209  0.13621562    -0.00300
C910        C  0.72898182  0.64211847  0.13564117    -0.02900
C911        C  0.74378659  0.59797600  0.09509093     0.36400
C912        C  0.69327132  0.65501726  0.14979311     0.40000
C913        C  0.69720754  0.59315786  0.09683025     0.39100
C914        C  0.73989831  0.65865445  0.14885051     0.36000
C915        C  0.76420045  0.65119767  0.08730981     0.36700
C916        C  0.81383862  0.61286634  0.15722833     0.40000
N917        N  0.68872191  0.57948819  0.08672770    -0.38100
N918        N  0.75412308  0.58664518  0.08392790    -0.39700
N919        N  0.68317455  0.66687065  0.16063132    -0.37400
N920        N  0.74867230  0.67181592  0.15936684    -0.39800
N921        N  0.75830054  0.59886179  0.17017658    -0.39600
N922        N  0.82384651  0.60552219  0.17161055    -0.37200
N923        N  0.81987362  0.66334684  0.07293738    -0.38300
N924        N  0.75407835  0.65884483  0.07316991    -0.39900
C925        C  0.77023340  0.61798348  0.88790434    -0.04900
C926        C  0.75888748  0.62696680  0.86980904     0.09300
C927        C  0.77075497  0.63713131  0.85270933    -0.02300
C928        C  0.79386478  0.63827121  0.85364991    -0.00500
C929        C  0.80527177  0.62885596  0.87152123    -0.04100
C930        C  0.79336704  0.61877019  0.88869417     0.02900
C931        C  0.73437418  0.62557658  0.86867705     0.09700
C932        C  0.75911976  0.64614198  0.83400033     0.35600
C933        C  0.80490614  0.60962982  0.90742400     0.39100
C934        C  0.72135318  0.64160387  0.87905336    -0.04500
C935        C  0.69825422  0.64012728  0.87826859     0.02700
C936        C  0.68795973  0.62269646  0.86682363    -0.04100
C937        C  0.70109238  0.60678487  0.85625527    -0.00300
C938        C  0.72420115  0.60817939  0.85728048    -0.02900
C939        C  0.73181688  0.65970068  0.89044909     0.36400
C940        C  0.69096483  0.58841246  0.84508241     0.40000
C941        C  0.68511589  0.65691050  0.88884710     0.39100
C942        C  0.73761680  0.59155355  0.84682847     0.36000
C943        C  0.75802848  0.60787754  0.90567091     0.36700
C944        C  0.80594582  0.64849844  0.83585288     0.40000
N945        N  0.67464644  0.67029351  0.89729106    -0.38100
N946        N  0.74021456  0.67413664  0.89950050    -0.39700
N947        N  0.68319408  0.57356651  0.83616653    -0.37400
N948        N  0.74836998  0.57830735  0.83853296    -0.39800
N949        N  0.74978315  0.65322245  0.81904858    -0.39600
N950        N  0.81562586  0.65666694  0.82169421    -0.37200
N951        N  0.81413502  0.60237225  0.92236301    -0.38300
N952        N  0.74823497  0.59988536  0.91984965    -0.39900
C953        C  0.88817645  0.61668589  0.97265941    -0.04900
C954        C  0.87377508  0.63064753  0.98419349     0.09300
C955        C  0.85844265  0.64347286  0.97252136    -0.02300
C956        C  0.85748931  0.64238470  0.94943474    -0.00500
C957        C  0.87214834  0.62869281  0.93777580    -0.04100
C958        C  0.88747272  0.61578424  0.94952477     0.02900
C959        C  0.87465989  0.63182195  0.00871623     0.09700
C960        C  0.84367094  0.65787681  0.98435315     0.35600
C961        C  0.90310724  0.60218173  0.93784662     0.39100
C962        C  0.89124899  0.64413740  0.01920851    -0.04500
C963        C  0.89203779  0.64528552  0.04232406     0.02700
C964        C  0.87619210  0.63413344  0.05509059    -0.04100
C965        C  0.85941038  0.62205820  0.04453028    -0.00300
C966        C  0.85870244  0.62086238  0.02143651    -0.02900
C967        C  0.90751687  0.65562173  0.00614392     0.36400
C968        C  0.84241305  0.61141647  0.05739710     0.40000
C969        C  0.90960209  0.65736366  0.05291429     0.39100
C970        C  0.84150794  0.60837868  0.01068520     0.36000
C971        C  0.90377890  0.60330284  0.98467084     0.36700
C972        C  0.84092496  0.65489946  0.93775981     0.40000
N973        N  0.92369502  0.66699697  0.06124059    -0.38100
N974        N  0.92050225  0.66472082  0.99568122    -0.39700
N975        N  0.82881552  0.60301432  0.06766334    -0.37400
N976        N  0.82776035  0.59850866  0.00205439    -0.39800
N977        N  0.83188952  0.66931123  0.99385194    -0.39600
N978        N  0.82768166  0.66481531  0.92842788    -0.37200
N979        N  0.91561317  0.59137892  0.92853039    -0.38300
N980        N  0.91623534  0.59267162  0.99429365    -0.39900
C981        C  0.22295673  0.61806680  0.88707414    -0.04900
C982        C  0.23449492  0.62560821  0.86845102     0.09300
C983        C  0.22274757  0.63360405  0.85015362    -0.02300
C984        C  0.19959209  0.63399273  0.85042659    -0.00500
C985        C  0.18801979  0.62599162  0.86886357    -0.04100
C986        C  0.19978475  0.61804771  0.88721135     0.02900
C987        C  0.25906820  0.62473667  0.86793615     0.09700
C988        C  0.23455970  0.64117634  0.83093504     0.35600
C989        C  0.18805825  0.61030752  0.90643533     0.39100
C990        C  0.26981805  0.60540923  0.86107530    -0.04500
C991        C  0.29295572  0.60455547  0.86043116     0.02700
C992        C  0.30548371  0.62288155  0.86712202    -0.04100
C993        C  0.29473333  0.64222973  0.87398087    -0.00300
C994        C  0.27158994  0.64321267  0.87418755    -0.02900
C995        C  0.25698456  0.58636599  0.85478729     0.36400
C996        C  0.30751855  0.66132829  0.88028542     0.40000
C997        C  0.30388573  0.58465799  0.85331734     0.39100
C998        C  0.26059908  0.66326677  0.88069953     0.36000
C999        C  0.23501148  0.61043549  0.90612875     0.36700
C1000       C  0.18764659  0.64202547  0.83144836     0.40000
N1001       N  0.31262249  0.56880825  0.84759919    -0.38100
N1002       N  0.24667875  0.57118448  0.84985530    -0.39700
N1003       N  0.31775246  0.67654357  0.88527774    -0.37400
N1004       N  0.25180376  0.67929392  0.88579532    -0.39800
N1005       N  0.24403048  0.64716710  0.81560370    -0.39600
N1006       N  0.17807824  0.64843227  0.81633745    -0.37200
N1007       N  0.17872278  0.60413132  0.92178117    -0.38300
N1008       N  0.24468394  0.60442812  0.92133454    -0.39900
C1009       C  0.97140711  0.61719951  0.85170477    -0.04900
C1010       C  0.98377585  0.62626475  0.86906740     0.09300
C1011       C  0.97289078  0.63586428  0.88710271    -0.02300
C1012       C  0.94976727  0.63666723  0.88764889    -0.00500
C1013       C  0.93738872  0.62750977  0.87032927    -0.04100
C1014       C  0.94827750  0.61767906  0.85239128     0.02900
C1015       C  0.00834590  0.62591409  0.86830439     0.09700
C1016       C  0.98556091  0.64464173  0.90523785     0.35600
C1017       C  0.93568779  0.60857999  0.83433168     0.39100
C1018       C  0.02001651  0.64495405  0.86235175    -0.04500
C1019       C  0.04318898  0.64499508  0.86228094     0.02700
C1020       C  0.05512833  0.62565563  0.86783839    -0.04100
C1021       C  0.04305540  0.60637630  0.87338960    -0.00300
C1022       C  0.01987869  0.60666748  0.87377900    -0.02900
C1023       C  0.00800262  0.66459785  0.85619995     0.36400
C1024       C  0.05412669  0.58609375  0.87913781     0.40000
C1025       C  0.05437012  0.66517090  0.85629034     0.39100
C1026       C  0.00774399  0.58713529  0.88010148     0.36000
C1027       C  0.98254431  0.60751875  0.83306110     0.36700
C1028       C  0.93869393  0.64632139  0.90635899     0.40000
N1029       N  0.06303123  0.68144506  0.85164261    -0.38100
N1030       N  0.99835972  0.68021194  0.85130810    -0.39700
N1031       N  0.06276345  0.56978398  0.88364522    -0.37400
N1032       N  0.99802369  0.57159372  0.88512829    -0.39800
N1033       N  0.99572775  0.65159145  0.91969583    -0.39600
N1034       N  0.92981791  0.65399767  0.92126684    -0.37200
N1035       N  0.92563798  0.60133249  0.81993319    -0.38300
N1036       N  0.99146052  0.59977223  0.81821631    -0.39900
C1037       C  0.22864836  0.61743386  0.13600423    -0.04900
C1038       C  0.24115659  0.62786768  0.11954811     0.09300
C1039       C  0.23039691  0.63905537  0.10233421    -0.02300
C1040       C  0.20725370  0.64017286  0.10181074    -0.00500
C1041       C  0.19471319  0.63025663  0.11863956    -0.04100
C1042       C  0.20552617  0.61871409  0.13564656     0.02900
C1043       C  0.26573108  0.62766722  0.12072083     0.09700
C1044       C  0.24321678  0.64934495  0.08511841     0.35600
C1045       C  0.19290630  0.60879878  0.15324438     0.39100
C1046       C  0.27777515  0.61042599  0.11109436    -0.04500
C1047       C  0.30093509  0.61054674  0.11191243     0.02700
C1048       C  0.31223448  0.62814115  0.12204122    -0.04100
C1049       C  0.30011056  0.64511372  0.13214979    -0.00300
C1050       C  0.27694833  0.64476299  0.13161943    -0.02900
C1051       C  0.26626767  0.59248342  0.10049685     0.36400
C1052       C  0.31142891  0.66331732  0.14251842     0.40000
C1053       C  0.31312153  0.59209223  0.10312215     0.39100
C1054       C  0.26453867  0.66194910  0.14238565     0.36000
C1055       C  0.23966775  0.60546429  0.15338155     0.36700
C1056       C  0.19633325  0.65086516  0.08353484     0.40000
N1057       N  0.32288194  0.57731322  0.09630568    -0.38100
N1058       N  0.25706366  0.57815269  0.09207906    -0.39700
N1059       N  0.32046526  0.67786241  0.15075133    -0.37400
N1060       N  0.25453620  0.67553539  0.15106001    -0.39800
N1061       N  0.25347951  0.65752521  0.07138369    -0.39600
N1062       N  0.18757908  0.65927041  0.06891526    -0.37200
N1063       N  0.18279096  0.60095764  0.16728448    -0.38300
N1064       N  0.24851611  0.59585231  0.16717165    -0.39900
C1065       C  0.98045607  0.61730871  0.12382086    -0.04900
C1066       C  0.99169237  0.63680089  0.11850030     0.09300
C1067       C  0.97973385  0.65597257  0.11373460    -0.02300
C1068       C  0.95658534  0.65587206  0.11465900    -0.00500
C1069       C  0.94495199  0.63618271  0.11970027    -0.04100
C1070       C  0.95730082  0.61679948  0.12407515     0.02900
C1071       C  0.01625963  0.63712603  0.11796126     0.09700
C1072       C  0.99140066  0.67586076  0.10762808     0.35600
C1073       C  0.94656557  0.59609820  0.12904482     0.39100
C1074       C  0.02760336  0.62753898  0.10021582    -0.04500
C1075       C  0.05073363  0.62710768  0.10010555     0.02700
C1076       C  0.06266576  0.63701156  0.11735304    -0.04100
C1077       C  0.05131257  0.64715772  0.13479862    -0.00300
C1078       C  0.02817825  0.64682506  0.13530719    -0.02900
C1079       C  0.01540541  0.61820470  0.08202511     0.36400
C1080       C  0.06342832  0.65728969  0.15262103     0.40000
C1081       C  0.06225333  0.61675126  0.08204938     0.39100
C1082       C  0.01657662  0.65599308  0.15392730     0.36000
C1083       C  0.99287920  0.59771851  0.12928391     0.36700
C1084       C  0.94510103  0.67623469  0.11012608     0.40000
N1085       N  0.07143473  0.60842438  0.06768488    -0.38100
N1086       N  0.00562864  0.61079983  0.06752423    -0.39700
N1087       N  0.07309741  0.66541040  0.16680981    -0.37400
N1088       N  0.00726113  0.66321637  0.16879134    -0.39800
N1089       N  0.00074962  0.69167110  0.10274059    -0.39600
N1090       N  0.93613013  0.69260490  0.10659505    -0.37200
N1091       N  0.93819613  0.57945171  0.13282286    -0.38300
N1092       N  0.00281313  0.58213335  0.13365686    -0.39900
C1093       C  0.13967544  0.64151664  0.96839803    -0.04900
C1094       C  0.12499722  0.62881871  0.98101826     0.09300
C1095       C  0.10919826  0.61560524  0.97044963    -0.02300
C1096       C  0.10802354  0.61511481  0.94733017    -0.00500
C1097       C  0.12264904  0.62792608  0.93459378    -0.04100
C1098       C  0.13848501  0.64116060  0.94528735     0.02900
C1099       C  0.12593781  0.62969119  0.00553556     0.09700
C1100       C  0.09411636  0.60254074  0.98346334     0.35600
C1101       C  0.15409373  0.65389662  0.93256357     0.39100
C1102       C  0.11124885  0.64324473  0.01715532    -0.04500
C1103       C  0.11215878  0.64425206  0.04025429     0.02700
C1104       C  0.12792187  0.63179071  0.05190062    -0.04100
C1105       C  0.14269569  0.61828997  0.04019829    -0.00300
C1106       C  0.14159234  0.61714656  0.01709870    -0.02900
C1107       C  0.09512066  0.65609505  0.00524967     0.36400
C1108       C  0.15955139  0.60615242  0.05184337     0.40000
C1109       C  0.09633160  0.65755276  0.05202228     0.39100
C1110       C  0.15651656  0.60301558  0.00514881     0.36000
C1111       C  0.15610162  0.65488857  0.97928330     0.36700
C1112       C  0.09125236  0.60192418  0.93677451     0.40000
N1113       N  0.08365419  0.66810219  0.06139896    -0.38100
N1114       N  0.08225389  0.66627695  0.99568621    -0.39700
N1115       N  0.17304195  0.59656712  0.06116320    -0.37400
N1116       N  0.16838648  0.59174367  0.99556241    -0.39800
N1117       N  0.08208181  0.59217663  0.99389411    -0.39600
N1118       N  0.07779032  0.59136691  0.92852850    -0.37200
N1119       N  0.16654930  0.66402382  0.92239562    -0.38300
N1120       N  0.16924966  0.66546168  0.98801134    -0.39900
C1121       C  0.63727760  0.22229051  0.10991735    -0.04900
C1122       C  0.62577705  0.23432468  0.12595928     0.09300
C1123       C  0.61412521  0.22315063  0.14256290    -0.02300
C1124       C  0.61410433  0.20000231  0.14324044    -0.00500
C1125       C  0.62547506  0.18790741  0.12706980    -0.04100
C1126       C  0.63702985  0.19914492  0.11036947     0.02900
C1127       C  0.62621342  0.25886407  0.12556580     0.09700
C1128       C  0.60219143  0.23555780  0.15895950     0.35600
C1129       C  0.64806268  0.18691628  0.09320156     0.39100
C1130       C  0.61037927  0.27060592  0.11343670    -0.04500
C1131       C  0.61082083  0.29377246  0.11307818     0.02700
C1132       C  0.62701463  0.30532553  0.12506116    -0.04100
C1133       C  0.64283249  0.29347881  0.13724973    -0.00300
C1134       C  0.64249802  0.27032549  0.13735791    -0.02900
C1135       C  0.59358063  0.25875787  0.10142145     0.36400
C1136       C  0.65989760  0.30506681  0.14916188     0.40000
C1137       C  0.59416579  0.30568968  0.10093092     0.39100
C1138       C  0.65906160  0.25818524  0.14940191     0.36000
C1139       C  0.64934855  0.23380516  0.09293165     0.36700
C1140       C  0.60305702  0.18866825  0.16105050     0.40000
N1141       N  0.58086110  0.31517925  0.09125337    -0.38100
N1142       N  0.58019701  0.24923682  0.09187535    -0.39700
N1143       N  0.67349456  0.31432511  0.15866744    -0.37400
N1144       N  0.67228407  0.24842078  0.15891424    -0.39800
N1145       N  0.59264014  0.24550681  0.17198320    -0.39600
N1146       N  0.59436695  0.17960835  0.17531412    -0.37200
N1147       N  0.65676970  0.17712399  0.07948109    -0.38300
N1148       N  0.65900227  0.24302509  0.07941544    -0.39900
C1149       C  0.63803384  0.22205093  0.89415965    -0.04900
C1150       C  0.62507643  0.23369514  0.87893008     0.09300
C1151       C  0.61277006  0.22213441  0.86309918    -0.02300
C1152       C  0.61350617  0.19900086  0.86239124    -0.00500
C1153       C  0.62612725  0.18722861  0.87792847    -0.04100
C1154       C  0.63840399  0.19888719  0.89382253     0.02900
C1155       C  0.62440285  0.25823378  0.87945037     0.09700
C1156       C  0.59929450  0.23413840  0.84756911     0.35600
C1157       C  0.65075975  0.18713876  0.91041836     0.39100
C1158       C  0.63962491  0.27053784  0.86709895    -0.04500
C1159       C  0.63847584  0.29365869  0.86685323     0.02700
C1160       C  0.62199964  0.30464013  0.87893285    -0.04100
C1161       C  0.60705808  0.29227304  0.89170461    -0.00300
C1162       C  0.60830384  0.26913275  0.89196672    -0.02900
C1163       C  0.65654884  0.25932562  0.85472395     0.36400
C1164       C  0.58993382  0.30326232  0.90401137     0.40000
C1165       C  0.65475128  0.30616184  0.85474334     0.39100
C1166       C  0.59297417  0.25642894  0.90502954     0.36000
C1167       C  0.65087758  0.23398791  0.91026439     0.36700
C1168       C  0.60190832  0.18737664  0.84513679     0.40000
N1169       N  0.66774972  0.31618323  0.84516861    -0.38100
N1170       N  0.67007100  0.25034824  0.84490889    -0.39700
N1171       N  0.57625924  0.31201878  0.91382015    -0.37400
N1172       N  0.58081796  0.24621291  0.91546260    -0.39800
N1173       N  0.58848849  0.24377846  0.83527611    -0.39600
N1174       N  0.59279354  0.17807877  0.83130671    -0.37200
N1175       N  0.66058886  0.17795329  0.92381852    -0.38300
N1176       N  0.66115561  0.24354587  0.92306142    -0.39900
C1177       C  0.63543938  0.10482624  0.02665460    -0.04900
C1178       C  0.62611645  0.12241499  0.01479386     0.09300
C1179       C  0.61620449  0.13996902  0.02617898    -0.02300
C1180       C  0.61531738  0.13976671  0.04931007    -0.00500
C1181       C  0.62484619  0.12225876  0.06117607    -0.04100
C1182       C  0.63502948  0.10485399  0.04977281     0.02900
C1183       C  0.62626770  0.12208054  0.99023087     0.09700
C1184       C  0.60709785  0.15832079  0.01403988     0.35600
C1185       C  0.64450289  0.08659408  0.06180503     0.39100
C1186       C  0.60712064  0.11633520  0.97866286    -0.04500
C1187       C  0.60722436  0.11543693  0.95552852     0.02700
C1188       C  0.62671696  0.12022836  0.94354035    -0.04100
C1189       C  0.64612862  0.12541399  0.95549807    -0.00300
C1190       C  0.64571052  0.12666668  0.97863258    -0.02900
C1191       C  0.58726293  0.11106546  0.99073266     0.36400
C1192       C  0.66677966  0.12944372  0.94436829     0.40000
C1193       C  0.58720146  0.10884759  0.94442017     0.39100
C1194       C  0.66535101  0.13282145  0.99064634     0.36000
C1195       C  0.64518559  0.08653250  0.01498701     0.36700
C1196       C  0.60510225  0.15786059  0.06090355     0.40000
N1197       N  0.57115576  0.10359286  0.93570849    -0.38100
N1198       N  0.57146477  0.10691567  0.00041055    -0.39700
N1199       N  0.68338711  0.13250406  0.93568363    -0.37400
N1200       N  0.68098459  0.13772152  0.00025774    -0.39800
N1201       N  0.59985232  0.17296008  0.00433560    -0.39600
N1202       N  0.59694451  0.17227044  0.07017429    -0.37200
N1203       N  0.65205637  0.07204425  0.07141114    -0.38300
N1204       N  0.65295478  0.07197996  0.00561301    -0.39900
C1205       C  0.63299142  0.76917296  0.88210628    -0.04900
C1206       C  0.62269426  0.75796591  0.86466269     0.09300
C1207       C  0.61240219  0.77002321  0.84776219    -0.02300
C1208       C  0.61247323  0.79320636  0.84825739    -0.00500
C1209       C  0.62261193  0.80444247  0.86584265    -0.04100
C1210       C  0.63279811  0.79232207  0.88280640     0.02900
C1211       C  0.62232455  0.73338082  0.86438407     0.09700
C1212       C  0.60182712  0.75849306  0.82982933     0.35600
C1213       C  0.64243974  0.80366874  0.90139229     0.39100
C1214       C  0.60486145  0.72194586  0.87437773    -0.04500
C1215       C  0.60456958  0.69878230  0.87445011     0.02700
C1216       C  0.62190638  0.68684586  0.86475382    -0.04100
C1217       C  0.63933173  0.69835348  0.85459098    -0.00300
C1218       C  0.63951102  0.72154687  0.85441398    -0.02900
C1219       C  0.58717291  0.73411080  0.88461072     0.36400
C1220       C  0.65741566  0.68636716  0.84485224     0.40000
C1221       C  0.58588472  0.68733564  0.88368713     0.39100
C1222       C  0.65746042  0.73332680  0.84413695     0.36000
C1223       C  0.64377983  0.75679482  0.89934555     0.36700
C1224       C  0.60279871  0.80547588  0.83027806     0.40000
N1225       N  0.57072259  0.67850591  0.89092801    -0.38100
N1226       N  0.57310011  0.74385113  0.89279045    -0.39700
N1227       N  0.67186631  0.67681003  0.83712116    -0.37400
N1228       N  0.67175694  0.74279315  0.83595931    -0.39800
N1229       N  0.59338295  0.74923689  0.81555767    -0.39600
N1230       N  0.59519032  0.81525632  0.81587122    -0.37200
N1231       N  0.65000297  0.81278095  0.91623965    -0.38300
N1232       N  0.65244599  0.74686269  0.91302642    -0.39900
C1233       C  0.63873796  0.97215715  0.85570803    -0.04900
C1234       C  0.62714387  0.98306250  0.87250883     0.09300
C1235       C  0.61540329  0.97069697  0.88820657    -0.02300
C1236       C  0.61486691  0.94759207  0.88686980    -0.00500
C1237       C  0.62616349  0.93665443  0.86984601    -0.04100
C1238       C  0.63832025  0.94901993  0.85440554     0.02900
C1239       C  0.62689169  0.00764992  0.87347962     0.09700
C1240       C  0.60399079  0.98181913  0.90585634     0.35600
C1241       C  0.64985287  0.93800757  0.83675538     0.39100
C1242       C  0.60813726  0.01926841  0.86661107    -0.04500
C1243       C  0.60742595  0.04238234  0.86816631     0.02700
C1244       C  0.62599518  0.05434276  0.87573744    -0.04100
C1245       C  0.64482899  0.04241460  0.88269668    -0.00300
C1246       C  0.64512265  0.01924229  0.88171228    -0.02900
C1247       C  0.58954473  0.00729956  0.85770303     0.36400
C1248       C  0.66379885  0.05369290  0.89168087     0.40000
C1249       C  0.58731520  0.05350602  0.86204407     0.39100
C1250       C  0.66416002  0.00718839  0.88942126     0.36000
C1251       C  0.65090419  0.98482223  0.83962393     0.36700
C1252       C  0.60329268  0.93504242  0.90350038     0.40000
N1253       N  0.57098265  0.06204716  0.85750502    -0.38100
N1254       N  0.57478184  0.99770363  0.85057081    -0.39700
N1255       N  0.67898926  0.06258665  0.89883551    -0.37400
N1256       N  0.67931786  0.99753356  0.89554856    -0.39800
N1257       N  0.59487243  0.99072878  0.91990351    -0.39600
N1258       N  0.59412975  0.92499142  0.91677022    -0.37200
N1259       N  0.65904684  0.92920793  0.82268355    -0.38300
N1260       N  0.66066369  0.99497149  0.82686709    -0.39900
C1261       C  0.61375515  0.77006510  0.10579741    -0.04900
C1262       C  0.62722092  0.75951429  0.12141605     0.09300
C1263       C  0.63994491  0.77222587  0.13599436    -0.02300
C1264       C  0.63937707  0.79537527  0.13486742    -0.00500
C1265       C  0.62600168  0.80601694  0.11912674    -0.04100
C1266       C  0.61314729  0.79321697  0.10461813     0.02900
C1267       C  0.62802203  0.73493401  0.12250852     0.09700
C1268       C  0.65341180  0.76138729  0.15236483     0.35600
C1269       C  0.59978728  0.80381895  0.08799063     0.39100
C1270       C  0.64480432  0.72336338  0.11158454    -0.04500
C1271       C  0.64537454  0.70019359  0.11230248     0.02700
C1272       C  0.62905888  0.68838938  0.12388799    -0.04100
C1273       C  0.61268566  0.70007873  0.13542519    -0.00300
C1274       C  0.61208631  0.72324430  0.13457497    -0.02900
C1275       C  0.66146173  0.73539057  0.09955389     0.36400
C1276       C  0.59609020  0.68835251  0.14779870     0.40000
C1277       C  0.66328326  0.68854910  0.10183486     0.39100
C1278       C  0.59492621  0.73513541  0.14595171     0.36000
C1279       C  0.60054604  0.75701067  0.09090516     0.36700
C1280       C  0.65196852  0.80821106  0.15048493     0.40000
N1281       N  0.67764125  0.67925233  0.09362804    -0.38100
N1282       N  0.67473313  0.74505934  0.08999849    -0.39700
N1283       N  0.58282992  0.67916968  0.15781898    -0.37400
N1284       N  0.58120933  0.74465307  0.15495492    -0.39800
N1285       N  0.66410786  0.75267268  0.16542156    -0.39600
N1286       N  0.66196881  0.81846883  0.16295985    -0.37200
N1287       N  0.58916623  0.81230757  0.07472091    -0.38300
N1288       N  0.58997571  0.74655836  0.07908110    -0.39900
C1289       C  0.63543887  0.97429485  0.10522121    -0.04900
C1290       C  0.62115311  0.98489323  0.11997753     0.09300
C1291       C  0.60673132  0.97235016  0.13301414    -0.02300
C1292       C  0.60708045  0.94922690  0.13186881    -0.00500
C1293       C  0.62156368  0.93847168  0.11723127    -0.04100
C1294       C  0.63548192  0.95118539  0.10363447     0.02900
C1295       C  0.62139531  0.00936763  0.12186476     0.09700
C1296       C  0.59154157  0.98332923  0.14764880     0.35600
C1297       C  0.64932064  0.94060330  0.08744671     0.39100
C1298       C  0.60898873  0.02225841  0.10719513    -0.04500
C1299       C  0.60963469  0.04535620  0.10859776     0.02700
C1300       C  0.62241496  0.05572358  0.12500314    -0.04100
C1301       C  0.63470453  0.04272869  0.13981244    -0.00300
C1302       C  0.63424206  0.01962493  0.13816897    -0.02900
C1303       C  0.59558928  0.01166229  0.09061235     0.36400
C1304       C  0.64737880  0.05305563  0.15712581     0.40000
C1305       C  0.59788002  0.05841748  0.09250403     0.39100
C1306       C  0.64699050  0.00630673  0.15324008     0.36000
C1307       C  0.65013652  0.98727986  0.09170552     0.36700
C1308       C  0.59306896  0.93658353  0.14642052     0.40000
N1309       N  0.58862027  0.06885097  0.07960426    -0.38100
N1310       N  0.58487982  0.00315761  0.07743220    -0.39700
N1311       N  0.65746349  0.06130498  0.17094848    -0.37400
N1312       N  0.65713116  0.99561255  0.16522668    -0.39800
N1313       N  0.57937245  0.99211468  0.15924895    -0.39600
N1314       N  0.58192694  0.92649165  0.15804179    -0.37200
N1315       N  0.66026756  0.93217561  0.07444337    -0.38300
N1316       N  0.66183727  0.99772513  0.08098436    -0.39900
C1317       C  0.61189132  0.88907717  0.01630877    -0.04900
C1318       C  0.62317612  0.87270176  0.00448769     0.09300
C1319       C  0.63447837  0.85601547  0.01592344    -0.02300
C1320       C  0.63431227  0.85554679  0.03906302    -0.00500
C1321       C  0.62305338  0.87194146  0.05093195    -0.04100
C1322       C  0.61190565  0.88876928  0.03947085     0.02900
C1323       C  0.62285547  0.87266975  0.97992197     0.09700
C1324       C  0.64629507  0.83932629  0.00378315     0.35600
C1325       C  0.60105869  0.90618691  0.05150842     0.39100
C1326       C  0.63711599  0.88649439  0.96800471    -0.04500
C1327       C  0.63734076  0.88581111  0.94486036     0.02700
C1328       C  0.62356019  0.87095307  0.93346584    -0.04100
C1329       C  0.60905927  0.85733696  0.94548502    -0.00300
C1330       C  0.60856885  0.85839588  0.96859607    -0.02900
C1331       C  0.65148651  0.90151375  0.97961705     0.36400
C1332       C  0.59503953  0.84174187  0.93418400     0.40000
C1333       C  0.65111572  0.90108375  0.93280701     0.39100
C1334       C  0.59323105  0.84488934  0.98082927     0.36000
C1335       C  0.60027395  0.90622696  0.00457007     0.36700
C1336       C  0.64512102  0.83776111  0.05064868     0.40000
N1337       N  0.66199020  0.91332431  0.92315487    -0.38100
N1338       N  0.66289381  0.91355143  0.98888453    -0.39700
N1339       N  0.58387374  0.82929514  0.92516096    -0.37400
N1340       N  0.58095690  0.83421782  0.99064838    -0.39800
N1341       N  0.65569891  0.82605824  0.99401345    -0.39600
N1342       N  0.65364084  0.82353365  0.05991964    -0.37200
N1343       N  0.59249380  0.92011278  0.06114056    -0.38300
N1344       N  0.59105662  0.91990747  0.99514786    -0.39900
C1345       C  0.22074856  0.35843467  0.89256096    -0.04900
C1346       C  0.23342860  0.37548871  0.88348174     0.09300
C1347       C  0.22301989  0.39382597  0.87401284    -0.02300
C1348       C  0.19992557  0.39492074  0.87310419    -0.00500
C1349       C  0.18697209  0.37719277  0.88104503    -0.04100
C1350       C  0.19767067  0.35921752  0.89142108     0.02900
C1351       C  0.25788034  0.37402172  0.88370139     0.09700
C1352       C  0.23621433  0.41153210  0.86500808     0.35600
C1353       C  0.18514142  0.34185122  0.90190887     0.39100
C1354       C  0.26868575  0.36042373  0.86846547    -0.04500
C1355       C  0.29174264  0.35893984  0.86856476     0.02700
C1356       C  0.30424199  0.37166571  0.88348043    -0.04100
C1357       C  0.29328897  0.38544094  0.89865458    -0.00300
C1358       C  0.27018306  0.38629698  0.89896785    -0.02900
C1359       C  0.25598458  0.34810645  0.85251753     0.36400
C1360       C  0.30566676  0.39952022  0.91335009     0.40000
C1361       C  0.30245590  0.34381761  0.85363952     0.39100
C1362       C  0.25897588  0.39991834  0.91493128     0.36000
C1363       C  0.23157577  0.34008403  0.90324759     0.36700
C1364       C  0.18984089  0.41454732  0.86416347     0.40000
N1365       N  0.31097577  0.33172025  0.84176586    -0.38100
N1366       N  0.24579622  0.33834153  0.83980380    -0.39700
N1367       N  0.31551049  0.41082955  0.92501858    -0.37400
N1368       N  0.24998994  0.41076393  0.92763766    -0.39800
N1369       N  0.24679782  0.42562835  0.85789425    -0.39600
N1370       N  0.18206362  0.43048944  0.85736235    -0.37200
N1371       N  0.17522572  0.32800309  0.91035682    -0.38300
N1372       N  0.24024713  0.32547720  0.91174962    -0.39900
C1373       C  0.27861689  0.35851833  0.11684736    -0.04900
C1374       C  0.26608431  0.37549091  0.12632864     0.09300
C1375       C  0.27680594  0.39352105  0.13619160    -0.02300
C1376       C  0.29993939  0.39468816  0.13643397    -0.00500
C1377       C  0.31249844  0.37783640  0.12672501    -0.04100
C1378       C  0.30175488  0.35967968  0.11703001     0.02900
C1379       C  0.24151577  0.37460910  0.12588468     0.09700
C1380       C  0.26390900  0.41095517  0.14594011     0.35600
C1381       C  0.31454535  0.34188073  0.10776190     0.39100
C1382       C  0.22989250  0.36488025  0.14340088    -0.04500
C1383       C  0.20674163  0.36557167  0.14382882     0.02700
C1384       C  0.19507381  0.37602958  0.12671590    -0.04100
C1385       C  0.20671770  0.38526174  0.10889555    -0.00300
C1386       C  0.22986042  0.38445654  0.10845219    -0.02900
C1387       C  0.24184734  0.35433681  0.16107704     0.36400
C1388       C  0.19487248  0.39518316  0.09076629     0.40000
C1389       C  0.19496288  0.35626140  0.16231276     0.39100
C1390       C  0.24176792  0.39374383  0.09005253     0.36000
C1391       C  0.26766105  0.33985326  0.10694003     0.36700
C1392       C  0.31079447  0.41358607  0.14603231     0.40000
N1393       N  0.18553260  0.34890666  0.17707180    -0.38100
N1394       N  0.25144123  0.34588965  0.17512954    -0.39700
N1395       N  0.18542577  0.40306607  0.07628839    -0.37400
N1396       N  0.25131602  0.40106223  0.07535404    -0.39800
N1397       N  0.25348899  0.42479728  0.15367013    -0.39600
N1398       N  0.31945787  0.42868850  0.15363781    -0.37200
N1399       N  0.32479565  0.32768949  0.10043765    -0.38300
N1400       N  0.25894246  0.32493697  0.09904048    -0.39900
C1401       C  0.14280118  0.36811176  0.02612561    -0.04900
C1402       C  0.12773318  0.38171178  0.01499967     0.09300
C1403       C  0.11356349  0.39538808  0.02709784    -0.02300
C1404       C  0.11400576  0.39505028  0.05024822    -0.00500
C1405       C  0.12879179  0.38107871  0.06149579    -0.04100
C1406       C  0.14340762  0.36783108  0.04927933     0.02900
C1407       C  0.12617788  0.38102702  0.99048494     0.09700
C1408       C  0.09838348  0.40969032  0.01561975     0.35600
C1409       C  0.15958269  0.35441051  0.06047680     0.39100
C1410       C  0.11112831  0.36667867  0.98031774    -0.04500
C1411       C  0.10940589  0.36601284  0.95723558     0.02700
C1412       C  0.12277331  0.37973142  0.94407844    -0.04100
C1413       C  0.13808869  0.39391185  0.95436176    -0.00300
C1414       C  0.13964849  0.39463639  0.97747780    -0.02900
C1415       C  0.09735971  0.35260883  0.99373599     0.36400
C1416       C  0.15300076  0.40703561  0.94120339     0.40000
C1417       C  0.09346466  0.35150563  0.94715594     0.39100
C1418       C  0.15518812  0.40931346  0.98796969     0.36000
C1419       C  0.15765357  0.35435961  0.01365887     0.36700
C1420       C  0.09857948  0.40846891  0.06240858     0.40000
N1421       N  0.08070903  0.33984416  0.93928805    -0.38100
N1422       N  0.08641412  0.34142518  0.00451493    -0.39700
N1423       N  0.16498369  0.41739993  0.93070839    -0.37400
N1424       N  0.16755794  0.42101334  0.99639719    -0.39800
N1425       N  0.08632723  0.42111648  0.00641008    -0.39600
N1426       N  0.08621121  0.41910033  0.07209915    -0.37200
N1427       N  0.17254285  0.34380288  0.06943883    -0.38300
N1428       N  0.16950622  0.34342229  0.00367518    -0.39900
C1429       C  0.76805574  0.39193820  0.88370065    -0.04900
C1430       C  0.75703555  0.37252902  0.87766822     0.09300
C1431       C  0.76923292  0.35387634  0.87164173    -0.02300
C1432       C  0.79239221  0.35445000  0.87192580    -0.00500
C1433       C  0.80376088  0.37416083  0.87739932    -0.04100
C1434       C  0.79118607  0.39299978  0.88311448     0.02900
C1435       C  0.73245384  0.37188618  0.87738208     0.09700
C1436       C  0.75782336  0.33406591  0.86487214     0.35600
C1437       C  0.80167813  0.41367834  0.88857227     0.39100
C1438       C  0.72079293  0.38274417  0.86058656    -0.04500
C1439       C  0.69765741  0.38280683  0.86059711     0.02700
C1440       C  0.68587559  0.37154096  0.87722371    -0.04100
C1441       C  0.69770498  0.36036950  0.89389448    -0.00300
C1442       C  0.72085960  0.36071699  0.89402290    -0.02900
C1443       C  0.73270542  0.39391726  0.84323892     0.36400
C1444       C  0.68622754  0.34794093  0.91067597     0.40000
C1445       C  0.68613157  0.39517360  0.84380496     0.39100
C1446       C  0.73284868  0.34956459  0.91132928     0.36000
C1447       C  0.75542906  0.41088347  0.89069535     0.36700
C1448       C  0.80417584  0.33455873  0.86626438     0.40000
N1449       N  0.67696478  0.40505440  0.83041222    -0.38100
N1450       N  0.74223870  0.40286037  0.82945375    -0.39700
N1451       N  0.67713473  0.33802252  0.92409496    -0.37400
N1452       N  0.74245653  0.34060526  0.92505313    -0.39800
N1453       N  0.74870281  0.31829027  0.85947894    -0.39600
N1454       N  0.81338382  0.31853888  0.86192012    -0.37200
N1455       N  0.80981113  0.43034234  0.89275713    -0.38300
N1456       N  0.74529637  0.42592315  0.89627747    -0.39900
C1457       C  0.97117101  0.36768910  0.85901475    -0.04900
C1458       C  0.98277605  0.37803320  0.87618051     0.09300
C1459       C  0.97115506  0.38856385  0.89319128    -0.02300
C1460       C  0.94801467  0.38860730  0.89314417    -0.00500
C1461       C  0.93638099  0.37817865  0.87600403    -0.04100
C1462       C  0.94804223  0.36784332  0.85885848     0.02900
C1463       C  0.00732681  0.37784089  0.87632805     0.09700
C1464       C  0.98308353  0.39912770  0.91087650     0.35600
C1465       C  0.93625129  0.35797093  0.84066710     0.39100
C1466       C  0.01911641  0.39637472  0.86913897    -0.04500
C1467       C  0.04227825  0.39635019  0.86936894     0.02700
C1468       C  0.05403719  0.37754691  0.87677905    -0.04100
C1469       C  0.04186151  0.35869666  0.88343838    -0.00300
C1470       C  0.01870761  0.35902863  0.88339369    -0.02900
C1471       C  0.00725033  0.41545098  0.86119091     0.36400
C1472       C  0.05278087  0.33868555  0.89033439     0.40000
C1473       C  0.05368673  0.41563606  0.86123091     0.39100
C1474       C  0.00644111  0.33991605  0.89068391     0.36000
C1475       C  0.98310766  0.35690871  0.84150180     0.36700
C1476       C  0.93619566  0.39869208  0.91115821     0.40000
N1477       N  0.06263453  0.43109314  0.85471205    -0.38100
N1478       N  0.99771970  0.43060781  0.85485049    -0.39700
N1479       N  0.06128150  0.32253537  0.89561040    -0.37400
N1480       N  0.99664722  0.32467985  0.89644805    -0.39800
N1481       N  0.99264887  0.40758634  0.92493481    -0.39600
N1482       N  0.92674290  0.40667015  0.92554490    -0.37200
N1483       N  0.92682077  0.35019941  0.82612628    -0.38300
N1484       N  0.99268820  0.34823656  0.82761392    -0.39900
C1485       C  0.77770454  0.37995548  0.10581771    -0.04900
C1486       C  0.76626455  0.37063382  0.12369842     0.09300
C1487       C  0.77806051  0.36260343  0.14195753    -0.02300
C1488       C  0.80111800  0.36429303  0.14255927    -0.00500
C1489       C  0.81254689  0.37389475  0.12482008    -0.04100
C1490       C  0.80080192  0.38155913  0.10635673     0.02900
C1491       C  0.74170070  0.37023980  0.12384562     0.09700
C1492       C  0.76638162  0.35273403  0.16020836     0.35600
C1493       C  0.81252148  0.39056119  0.08767652     0.39100
C1494       C  0.73005201  0.35434903  0.11165836    -0.04500
C1495       C  0.70688119  0.35425993  0.11174651     0.02700
C1496       C  0.69522770  0.36978354  0.12445611    -0.04100
C1497       C  0.70698200  0.38539698  0.13699566    -0.00300
C1498       C  0.73009674  0.38577249  0.13645763    -0.02900
C1499       C  0.74197273  0.33790483  0.09929376     0.36400
C1500       C  0.69533180  0.40156188  0.14999754     0.40000
C1501       C  0.69507712  0.33775396  0.09927387     0.39100
C1502       C  0.74204374  0.40232798  0.14872766     0.36000
C1503       C  0.76565015  0.38801225  0.08693572     0.36700
C1504       C  0.81304621  0.35680991  0.16178043     0.40000
N1505       N  0.68564239  0.32460730  0.08931714    -0.38100
N1506       N  0.75151305  0.32476919  0.08947710    -0.39700
N1507       N  0.68603681  0.41440047  0.16042397    -0.37400
N1508       N  0.75165587  0.41548823  0.15848758    -0.39800
N1509       N  0.75701406  0.34491220  0.17476376    -0.39600
N1510       N  0.82259772  0.35092388  0.17711199    -0.37200
N1511       N  0.82188555  0.39767326  0.07275600    -0.38300
N1512       N  0.75600297  0.39435789  0.07185119    -0.39900
C1513       C  0.97990556  0.40020514  0.12380601    -0.04900
C1514       C  0.99194902  0.38087013  0.12757600     0.09300
C1515       C  0.98080426  0.36103577  0.13158347    -0.02300
C1516       C  0.95764608  0.36042875  0.13192468    -0.00500
C1517       C  0.94515964  0.37984485  0.12795254    -0.04100
C1518       C  0.95671996  0.39981825  0.12397889     0.02900
C1519       C  0.01652667  0.38137986  0.12743804     0.09700
C1520       C  0.99333691  0.34112031  0.13535905     0.35600
C1521       C  0.94512649  0.42017722  0.11974491     0.39100
C1522       C  0.02814486  0.38821870  0.14627286    -0.04500
C1523       C  0.05129828  0.38871259  0.14616263     0.02700
C1524       C  0.06296648  0.38152601  0.12748844    -0.04100
C1525       C  0.05131387  0.37450812  0.10870429    -0.00300
C1526       C  0.02816905  0.37479111  0.10856513    -0.02900
C1527       C  0.01619162  0.39434087  0.16589604     0.36400
C1528       C  0.06313848  0.36732417  0.08935498     0.40000
C1529       C  0.06306956  0.39616967  0.16545736     0.39100
C1530       C  0.01625630  0.36838687  0.08897985     0.36000
C1531       C  0.99154684  0.42055871  0.11947624     0.36700
C1532       C  0.94707047  0.33959846  0.13670664     0.40000
N1533       N  0.07234313  0.40224400  0.18087871    -0.38100
N1534       N  0.00657683  0.39910434  0.18154287    -0.39700
N1535       N  0.07251934  0.36152959  0.07391520    -0.37400
N1536       N  0.00670944  0.36335147  0.07335334    -0.39800
N1537       N  0.00334725  0.32524925  0.13827401    -0.39600
N1538       N  0.93882696  0.32288791  0.14049242    -0.37200
N1539       N  0.93605610  0.43652974  0.11640446    -0.38300
N1540       N  0.00089839  0.43674290  0.11602811    -0.39900
C1541       C  0.89100100  0.38957669  0.02484395    -0.04900
C1542       C  0.87642372  0.37528445  0.01393301     0.09300
C1543       C  0.86303716  0.36093464  0.02622995    -0.02300
C1544       C  0.86407662  0.36096433  0.04936470    -0.00500
C1545       C  0.87871039  0.37526762  0.06039860    -0.04100
C1546       C  0.89226095  0.38950552  0.04796790     0.02900
C1547       C  0.87507829  0.37542997  0.98939832     0.09700
C1548       C  0.84801872  0.34626872  0.01499167     0.35600
C1549       C  0.90796029  0.40372050  0.05886797     0.39100
C1550       C  0.89020815  0.36324524  0.97687428    -0.04500
C1551       C  0.88899608  0.36341376  0.95374000     0.02700
C1552       C  0.87244298  0.37563863  0.94293768    -0.04100
C1553       C  0.85730815  0.38784679  0.95559597    -0.00300
C1554       C  0.85871163  0.38781110  0.97871458    -0.02900
C1555       C  0.90711406  0.35062635  0.98789740     0.36400
C1556       C  0.83979723  0.39993400  0.94497406     0.40000
C1557       C  0.90536073  0.35166504  0.94109478     0.39100
C1558       C  0.84333624  0.40057901  0.99160802     0.36000
C1559       C  0.90460204  0.40448185  0.01218048     0.36700
C1560       C  0.84935632  0.34690966  0.06176194     0.40000
N1561       N  0.91846842  0.34236529  0.93101704    -0.38100
N1562       N  0.92058403  0.34060949  0.99677941    -0.39700
N1563       N  0.82570667  0.40959312  0.93670154    -0.37400
N1564       N  0.83111238  0.41076727  0.00193150    -0.39800
N1565       N  0.83602848  0.33459938  0.00599379    -0.39600
N1566       N  0.83757551  0.33576762  0.07167132    -0.37200
N1567       N  0.92052661  0.41504516  0.06751691    -0.38300
N1568       N  0.91540314  0.41636749  0.00202383    -0.39900
C1569       C  0.36564501  0.77649285  0.13518345    -0.04900
C1570       C  0.37740795  0.76618986  0.11813059     0.09300
C1571       C  0.38861346  0.77908338  0.10250361    -0.02300
C1572       C  0.38821311  0.80219017  0.10398915    -0.00500
C1573       C  0.37674765  0.81255963  0.12128507    -0.04100
C1574       C  0.36530775  0.79960090  0.13678455     0.02900
C1575       C  0.37825328  0.74166693  0.11690388     0.09700
C1576       C  0.40046294  0.76849798  0.08481880     0.35600
C1577       C  0.35368841  0.80997839  0.15476129     0.39100
C1578       C  0.36083681  0.72982319  0.10724782    -0.04500
C1579       C  0.36114783  0.70664765  0.10713464     0.02700
C1580       C  0.37881048  0.69521734  0.11688817    -0.04100
C1581       C  0.39648533  0.70712231  0.12607456    -0.00300
C1582       C  0.39626423  0.73027189  0.12593079    -0.02900
C1583       C  0.34251486  0.74156538  0.09762446     0.36400
C1584       C  0.41510506  0.69555853  0.13537878     0.40000
C1585       C  0.34288541  0.69458361  0.09774238     0.39100
C1586       C  0.41454292  0.74244664  0.13513735     0.36000
C1587       C  0.35403383  0.76321660  0.15118949     0.36700
C1588       C  0.39886666  0.81529026  0.08716974     0.40000
N1589       N  0.32831898  0.68494096  0.09027029    -0.38100
N1590       N  0.32791438  0.75099714  0.08998060    -0.39700
N1591       N  0.42996889  0.68635396  0.14279261    -0.37400
N1592       N  0.42915625  0.75220874  0.14235242    -0.39800
N1593       N  0.40993929  0.76002201  0.07074174    -0.39600
N1594       N  0.40725140  0.82577897  0.07372171    -0.37200
N1595       N  0.34442633  0.81827178  0.16909222    -0.38300
N1596       N  0.34475186  0.75256178  0.16389289    -0.39900
C1597       C  0.38495349  0.77094440  0.85142955    -0.04900
C1598       C  0.37139784  0.75801058  0.86501408     0.09300
C1599       C  0.35771145  0.76824042  0.88061612    -0.02300
C1600       C  0.35804656  0.79127475  0.88309367    -0.00500
C1601       C  0.37189966  0.80427691  0.86975026    -0.04100
C1602       C  0.38514650  0.79399141  0.85368477     0.02900
C1603       C  0.37257563  0.73348630  0.86396606     0.09700
C1604       C  0.34347063  0.75492879  0.89430322     0.35600
C1605       C  0.39859870  0.80710857  0.83902487     0.39100
C1606       C  0.38524242  0.72200934  0.87954797    -0.04500
C1607       C  0.38594819  0.69889010  0.87928315     0.02700
C1608       C  0.37343419  0.68691966  0.86373859    -0.04100
C1609       C  0.36128344  0.69856022  0.84763623    -0.00300
C1610       C  0.36103199  0.72176016  0.84768981    -0.02900
C1611       C  0.39756754  0.73412365  0.89594417     0.36400
C1612       C  0.34838889  0.68683197  0.83141062     0.40000
C1613       C  0.40020107  0.68755710  0.89464914     0.39100
C1614       C  0.34872816  0.73363801  0.83111982     0.36000
C1615       C  0.39886976  0.76044477  0.83525583     0.36700
C1616       C  0.34483839  0.80145198  0.90004734     0.40000
N1617       N  0.41164104  0.67854130  0.90684655    -0.38100
N1618       N  0.40728759  0.74386173  0.90903442    -0.39700
N1619       N  0.33811442  0.67750719  0.81843617    -0.37400
N1620       N  0.33904406  0.74313021  0.81781255    -0.39800
N1621       N  0.33214227  0.74423080  0.90517854    -0.39600
N1622       N  0.33437871  0.80956993  0.91363291    -0.37200
N1623       N  0.40929249  0.81756905  0.82730496    -0.38300
N1624       N  0.40991625  0.75202866  0.82233499    -0.39900
C1625       C  0.38316650  0.85576316  0.97521230    -0.04900
C1626       C  0.37176796  0.87266965  0.98616374     0.09300
C1627       C  0.36038542  0.88862211  0.97379173    -0.02300
C1628       C  0.36028680  0.88762796  0.95063386    -0.00500
C1629       C  0.37194769  0.87087093  0.93960967    -0.04100
C1630       C  0.38344504  0.85497293  0.95203619     0.02900
C1631       C  0.37229482  0.87410421  0.01076172     0.09700
C1632       C  0.34907530  0.90630858  0.98496442     0.35600
C1633       C  0.39524745  0.83752354  0.94099740     0.39100
C1634       C  0.38705673  0.88857034  0.02118835    -0.04500
C1635       C  0.38744610  0.89028110  0.04429793     0.02700
C1636       C  0.37313623  0.87735029  0.05732437    -0.04100
C1637       C  0.35844257  0.86268839  0.04675410    -0.00300
C1638       C  0.35806679  0.86110566  0.02360971    -0.02900
C1639       C  0.40204133  0.90158803  0.00801710     0.36400
C1640       C  0.34420954  0.84854859  0.05961219     0.40000
C1641       C  0.40228029  0.90584727  0.05450111     0.39100
C1642       C  0.34322672  0.84584401  0.01293854     0.36000
C1643       C  0.39472105  0.83924825  0.98787943     0.36700
C1644       C  0.34887194  0.90440547  0.93815241     0.40000
N1645       N  0.41418584  0.91831054  0.06247984    -0.38100
N1646       N  0.41399219  0.91191315  0.99745710    -0.39700
N1647       N  0.33285505  0.83726672  0.06985817    -0.37400
N1648       N  0.33148988  0.83358074  0.00440577    -0.39800
N1649       N  0.34019852  0.92048768  0.99391550    -0.39600
N1650       N  0.33978222  0.91777848  0.92817410    -0.37200
N1651       N  0.40469639  0.82364508  0.93215941    -0.38300
N1652       N  0.40384165  0.82605298  0.99805851    -0.39900
C1653       C  0.36404787  0.22217372  0.86662825    -0.04900
C1654       C  0.37306450  0.23362033  0.88465104     0.09300
C1655       C  0.38183538  0.22171997  0.90251535    -0.02300
C1656       C  0.38157028  0.19852649  0.90236534    -0.00500
C1657       C  0.37258193  0.18709165  0.88431478    -0.04100
C1658       C  0.36375441  0.19899589  0.86647305     0.02900
C1659       C  0.37301887  0.25825690  0.88484263     0.09700
C1660       C  0.39118272  0.23339625  0.92101794     0.35600
C1661       C  0.35486195  0.18739051  0.84767814     0.39100
C1662       C  0.35675029  0.26974699  0.89662835    -0.04500
C1663       C  0.35611698  0.29291909  0.89609404     0.02700
C1664       C  0.37163889  0.30477885  0.88356470    -0.04100
C1665       C  0.38806565  0.29326482  0.87194505    -0.00300
C1666       C  0.38884426  0.27010293  0.87273932    -0.02900
C1667       C  0.34049400  0.25763778  0.90911330     0.36400
C1668       C  0.40456358  0.30527507  0.85964492     0.40000
C1669       C  0.33899343  0.30452320  0.90782875     0.39100
C1670       C  0.40607447  0.25839257  0.86129037     0.36000
C1671       C  0.35512555  0.23432978  0.84819767     0.36700
C1672       C  0.38992924  0.18639737  0.92108783     0.40000
N1673       N  0.32534196  0.31382758  0.91715412    -0.38100
N1674       N  0.32757830  0.24792213  0.91909714    -0.39700
N1675       N  0.41770130  0.31489816  0.84985579    -0.37400
N1676       N  0.41985026  0.24902209  0.85222119    -0.39800
N1677       N  0.39861842  0.24274002  0.93578300    -0.39600
N1678       N  0.39647468  0.17667450  0.93604447    -0.37200
N1679       N  0.34777958  0.17814455  0.83267742    -0.38300
N1680       N  0.34810117  0.24409906  0.83349384    -0.39900
C1681       C  0.35942413  0.97252256  0.86324471    -0.04900
C1682       C  0.37513526  0.98353121  0.87620530     0.09300
C1683       C  0.39069812  0.97123295  0.88812979    -0.02300
C1684       C  0.39041097  0.94804846  0.88736204    -0.00500
C1685       C  0.37470997  0.93686766  0.87428189    -0.04100
C1686       C  0.35938665  0.94935686  0.86199091     0.02900
C1687       C  0.37518220  0.00815477  0.87740749     0.09700
C1688       C  0.40694368  0.98253520  0.90137206     0.35600
C1689       C  0.34401075  0.93852883  0.84737759     0.39100
C1690       C  0.36534308  0.01892873  0.89537199    -0.04500
C1691       C  0.36510754  0.04209829  0.89639452     0.02700
C1692       C  0.37462814  0.05469626  0.87937851    -0.04100
C1693       C  0.38479803  0.04388189  0.86156895    -0.00300
C1694       C  0.38504960  0.02070353  0.86059497    -0.02900
C1695       C  0.35554394  0.00608035  0.91286350     0.36400
C1696       C  0.39456639  0.05660804  0.84395589     0.40000
C1697       C  0.35586922  0.05295926  0.91542820     0.39100
C1698       C  0.39551198  0.00968477  0.84231099     0.36000
C1699       C  0.34309405  0.98513283  0.85136589     0.36700
C1700       C  0.40592058  0.93582080  0.90067613     0.40000
N1701       N  0.34864650  0.06162430  0.93068312    -0.38100
N1702       N  0.34781413  0.99575071  0.92681193    -0.39700
N1703       N  0.40235299  0.06679749  0.82993259    -0.37400
N1704       N  0.40384587  0.00084145  0.82774202    -0.39800
N1705       N  0.41986915  0.99157981  0.91195354    -0.39600
N1706       N  0.41829923  0.92608386  0.91129729    -0.37200
N1707       N  0.33180782  0.92991365  0.83563832    -0.38300
N1708       N  0.33003104  0.99523549  0.84198776    -0.39900
C1709       C  0.36508762  0.27884184  0.14065160    -0.04900
C1710       C  0.37870286  0.26696248  0.12622063     0.09300
C1711       C  0.39193054  0.27833402  0.11097686    -0.02300
C1712       C  0.39186408  0.30151226  0.11044015    -0.00500
C1713       C  0.37825242  0.31346645  0.12495798    -0.04100
C1714       C  0.36461293  0.30194559  0.13984213     0.02900
C1715       C  0.37866529  0.24238572  0.12697345     0.09700
C1716       C  0.40557935  0.26612293  0.09581919     0.35600
C1717       C  0.34941993  0.31375597  0.15384375     0.39100
C1718       C  0.36053216  0.23065857  0.11870772    -0.04500
C1719       C  0.35937305  0.20766034  0.12111620     0.02700
C1720       C  0.37708468  0.19589072  0.13071314    -0.04100
C1721       C  0.39527013  0.20784675  0.13905418    -0.00300
C1722       C  0.39598551  0.23095889  0.13720086    -0.02900
C1723       C  0.34304004  0.24239322  0.10756089     0.36400
C1724       C  0.41273376  0.19665462  0.15074896     0.40000
C1725       C  0.33970936  0.19640863  0.11373975     0.39100
C1726       C  0.41444150  0.24311202  0.14610479     0.36000
C1727       C  0.35150664  0.26719498  0.15639150     0.36700
C1728       C  0.40638039  0.31297052  0.09542324     0.40000
N1729       N  0.32391339  0.18758116  0.10793908    -0.38100
N1730       N  0.32916627  0.25180056  0.09863420    -0.39700
N1731       N  0.42661804  0.18780292  0.16021825    -0.37400
N1732       N  0.42916622  0.25285992  0.15311246    -0.39800
N1733       N  0.41648130  0.25636922  0.08374149    -0.39600
N1734       N  0.41798920  0.32212240  0.08348763    -0.37200
N1735       N  0.33724515  0.32317744  0.16493202    -0.38300
N1736       N  0.34065531  0.25785477  0.16887630    -0.39900
C1737       C  0.38440269  0.02711270  0.14509472    -0.04900
C1738       C  0.37351915  0.01676889  0.12746524     0.09300
C1739       C  0.36220614  0.02965303  0.11188123    -0.02300
C1740       C  0.36173403  0.05273249  0.11394419    -0.00500
C1741       C  0.37339252  0.06319117  0.13113121    -0.04100
C1742       C  0.38449475  0.05020549  0.14682532     0.02900
C1743       C  0.37366312  0.99221128  0.12564972     0.09700
C1744       C  0.35128700  0.01911450  0.09353595     0.35600
C1745       C  0.39509854  0.06042431  0.16547275     0.39100
C1746       C  0.35479755  0.98002084  0.13110112    -0.04500
C1747       C  0.35506549  0.95685540  0.13020686     0.02700
C1748       C  0.37455801  0.94541745  0.12424377    -0.04100
C1749       C  0.39343742  0.95797901  0.11851287    -0.00300
C1750       C  0.39283575  0.98116302  0.11905455    -0.02900
C1751       C  0.33506056  0.99144280  0.13794600     0.36400
C1752       C  0.41364947  0.94740929  0.11176616     0.40000
C1753       C  0.33510133  0.94513566  0.13584125     0.39100
C1754       C  0.41202976  0.99381414  0.11273440     0.36000
C1755       C  0.39530758  0.01389295  0.16164643     0.36700
C1756       C  0.34957390  0.06565986  0.09804497     0.40000
N1757       N  0.31905623  0.93596591  0.14026484    -0.38100
N1758       N  0.31933046  0.00059100  0.14331063    -0.39700
N1759       N  0.42992935  0.93921053  0.10649557    -0.37400
N1760       N  0.42730394  0.00394779  0.10773344    -0.39800
N1761       N  0.34258416  0.01067198  0.07891967    -0.39600
N1762       N  0.33981509  0.07592827  0.08538024    -0.37200
N1763       N  0.40347769  0.06819080  0.18061755    -0.38300
N1764       N  0.40401419  0.00331917  0.17481253    -0.39900
C1765       C  0.37085572  0.14317264  0.03004916    -0.04900
C1766       C  0.37705662  0.12326648  0.02002698     0.09300
C1767       C  0.38373988  0.10539347  0.03315163    -0.02300
C1768       C  0.38423314  0.10742359  0.05620019    -0.00500
C1769       C  0.37708359  0.12702717  0.06631269    -0.04100
C1770       C  0.37065802  0.14498804  0.05312343     0.02900
C1771       C  0.37663150  0.12122472  0.99555462     0.09700
C1772       C  0.38986537  0.08482821  0.02288670     0.35600
C1773       C  0.36497603  0.16576148  0.06312225     0.39100
C1774       C  0.39617135  0.12299578  0.98341754    -0.04500
C1775       C  0.39580372  0.12137653  0.96030789     0.02700
C1776       C  0.37552893  0.11892576  0.94885184    -0.04100
C1777       C  0.35590554  0.11689028  0.96144563    -0.00300
C1778       C  0.35661111  0.11783084  0.98458235    -0.02900
C1779       C  0.41670607  0.12700376  0.99482818     0.36400
C1780       C  0.33472958  0.11371149  0.95101578     0.40000
C1781       C  0.41657423  0.12232552  0.94871832     0.39100
C1782       C  0.33660288  0.11540739  0.99728462     0.36000
C1783       C  0.36498867  0.16188321  0.01650762     0.36700
C1784       C  0.39218044  0.08930609  0.06946031     0.40000
N1785       N  0.43324572  0.12293329  0.93966061    -0.38100
N1786       N  0.43303867  0.13030110  0.00394728    -0.39700
N1787       N  0.31773638  0.11124595  0.94288471    -0.37400
N1788       N  0.32070193  0.11349127  0.00746972    -0.39800
N1789       N  0.39468619  0.06841272  0.01467009    -0.39600
N1790       N  0.39878883  0.07487982  0.07991151    -0.37200
N1791       N  0.36067185  0.18264634  0.07060715    -0.38300
N1792       N  0.36038607  0.17677205  0.00563168    -0.39900
C1793       C  0.88971244  0.97690202  0.64627168    -0.04900
C1794       C  0.87417821  0.98863826  0.63373578     0.09300
C1795       C  0.85876439  0.97710280  0.62087094    -0.02300
C1796       C  0.85887294  0.95393164  0.62050444    -0.00500
C1797       C  0.87445225  0.94210593  0.63303294    -0.04100
C1798       C  0.88988402  0.95372016  0.64592271     0.02900
C1799       C  0.87431960  0.01323849  0.63368699     0.09700
C1800       C  0.84283269  0.98917608  0.60794209     0.35600
C1801       C  0.90652373  0.94186335  0.65814556     0.39100
C1802       C  0.88816334  0.02474078  0.61914053    -0.04500
C1803       C  0.88818532  0.04791309  0.61882529     0.02700
C1804       C  0.87413962  0.05983963  0.63297867    -0.04100
C1805       C  0.86027408  0.04818764  0.64757494    -0.00300
C1806       C  0.86046515  0.02499974  0.64796412    -0.02900
C1807       C  0.90242726  0.01261507  0.60448105     0.36400
C1808       C  0.84518326  0.05991508  0.66170252     0.40000
C1809       C  0.90323696  0.05939389  0.60435881     0.39100
C1810       C  0.84632711  0.01314215  0.66301961     0.36000
C1811       C  0.90565740  0.98877602  0.65936740     0.36700
C1812       C  0.84254453  0.94228778  0.60764655     0.40000
N1813       N  0.91524961  0.06854958  0.59283310    -0.38100
N1814       N  0.91378380  0.00287610  0.59282031    -0.39700
N1815       N  0.83306282  0.06914314  0.67299807    -0.37400
N1816       N  0.83507061  0.00365558  0.67502839    -0.39800
N1817       N  0.83014981  0.99887278  0.59765202    -0.39600
N1818       N  0.82952134  0.93299246  0.59740424    -0.37200
N1819       N  0.91983489  0.93236537  0.66780991    -0.38300
N1820       N  0.91837648  0.99830936  0.66976669    -0.39900
C1821       C  0.02436716  0.13867923  0.64184390    -0.04900
C1822       C  0.01199938  0.12261598  0.63061693     0.09300
C1823       C  0.02288282  0.10562906  0.61924645    -0.02300
C1824       C  0.04597374  0.10442093  0.61948813    -0.00500
C1825       C  0.05837695  0.12055911  0.63061949    -0.04100
C1826       C  0.04747384  0.13789907  0.64150771     0.02900
C1827       C  0.98746035  0.12344809  0.63083862     0.09700
C1828       C  0.01024332  0.08931751  0.60734713     0.35600
C1829       C  0.05999122  0.15546400  0.65165422     0.39100
C1830       C  0.97621143  0.13960254  0.61857825    -0.04500
C1831       C  0.95308816  0.14020191  0.61864771     0.02700
C1832       C  0.94107781  0.12427124  0.63050601    -0.04100
C1833       C  0.95233462  0.10786001  0.64240519    -0.00300
C1834       C  0.97543726  0.10777163  0.64299086    -0.02900
C1835       C  0.98846828  0.15562584  0.60589823     0.36400
C1836       C  0.94016402  0.09044319  0.65322281     0.40000
C1837       C  0.94169408  0.15761022  0.60703597     0.39100
C1838       C  0.98688875  0.09160716  0.65621520     0.36000
C1839       C  0.01328046  0.15593099  0.65390263     0.36700
C1840       C  0.05688588  0.08610773  0.60892200     0.40000
N1841       N  0.93258107  0.17152786  0.59785690    -0.38100
N1842       N  0.99827884  0.16845528  0.59588040    -0.39700
N1843       N  0.93041600  0.07645136  0.66162147    -0.37400
N1844       N  0.99605814  0.07874081  0.66676493    -0.39800
N1845       N  0.00009199  0.07629446  0.59795528    -0.39600
N1846       N  0.06558586  0.07144458  0.60059054    -0.37200
N1847       N  0.06995968  0.16957213  0.65956945    -0.38300
N1848       N  0.00443266  0.16970418  0.66349546    -0.39900
C1849       C  0.02263366  0.86584044  0.61568909    -0.04900
C1850       C  0.01129918  0.87197634  0.63485425     0.09300
C1851       C  0.02324264  0.87783217  0.65376833    -0.02300
C1852       C  0.04641986  0.87717465  0.65372641    -0.00500
C1853       C  0.05804946  0.87064710  0.63459421    -0.04100
C1854       C  0.04580488  0.86556030  0.61534447     0.02900
C1855       C  0.98669738  0.87294441  0.63487848     0.09700
C1856       C  0.01155826  0.88494461  0.67323829     0.35600
C1857       C  0.05671451  0.86021860  0.59488812     0.39100
C1858       C  0.97431872  0.85634634  0.64533618    -0.04500
C1859       C  0.95117200  0.85728900  0.64530308     0.02700
C1860       C  0.94023980  0.87461563  0.63439425    -0.04100
C1861       C  0.95264215  0.89122763  0.62395769    -0.00300
C1862       C  0.97577090  0.89046250  0.62433118    -0.02900
C1863       C  0.98544903  0.83806310  0.65575918     0.36400
C1864       C  0.94160208  0.90948264  0.61335202     0.40000
C1865       C  0.93860778  0.84002385  0.65589594     0.39100
C1866       C  0.98840232  0.90775745  0.61389813     0.36000
C1867       C  0.01030604  0.85973931  0.59622775     0.36700
C1868       C  0.05808864  0.88435974  0.67320178     0.40000
N1869       N  0.92854944  0.82629334  0.66436045    -0.38100
N1870       N  0.99435378  0.82347069  0.66404456    -0.39700
N1871       N  0.93274265  0.92402955  0.60493415    -0.37400
N1872       N  0.99852164  0.92149676  0.60552989    -0.39800
N1873       N  0.00218049  0.89060119  0.68873014    -0.39600
N1874       N  0.06729930  0.89020198  0.68875259    -0.37200
N1875       N  0.06523833  0.85618844  0.57841529    -0.38300
N1876       N  0.00043405  0.85491276  0.58073692    -0.39900
C1877       C  0.12970646  0.96985538  0.65558565    -0.04900
C1878       C  0.12165968  0.98139952  0.63723784     0.09300
C1879       C  0.11391319  0.96972571  0.61887554    -0.02300
C1880       C  0.11461928  0.94656278  0.61858380    -0.00500
C1881       C  0.12351699  0.93474415  0.63664199    -0.04100
C1882       C  0.13065441  0.94667817  0.65537576     0.02900
C1883       C  0.12217917  0.00597768  0.63685576     0.09700
C1884       C  0.10517301  0.98169691  0.60021856     0.35600
C1885       C  0.13931815  0.93539282  0.67447655     0.39100
C1886       C  0.14041850  0.01693458  0.62775381    -0.04500
C1887       C  0.14104793  0.04006636  0.62714423     0.02700
C1888       C  0.12337560  0.05244835  0.63556366    -0.04100
C1889       C  0.10518023  0.04145254  0.64489262    -0.00300
C1890       C  0.10453536  0.01826540  0.64538853    -0.02900
C1891       C  0.15852713  0.00429669  0.61891661     0.36400
C1892       C  0.08684840  0.05396606  0.65343315     0.40000
C1893       C  0.16032231  0.05106040  0.61858037     0.39100
C1894       C  0.08556814  0.00697350  0.65428703     0.36000
C1895       C  0.13719304  0.98197360  0.67466711     0.36700
C1896       C  0.10530770  0.93507298  0.59991716     0.40000
N1897       N  0.17590558  0.05957207  0.61186980    -0.38100
N1898       N  0.17290556  0.99415469  0.61182877    -0.39700
N1899       N  0.07223567  0.06395763  0.66025998    -0.37400
N1900       N  0.07041200  0.99791130  0.66128999    -0.39800
N1901       N  0.09822253  0.99130863  0.58537773    -0.39600
N1902       N  0.09778945  0.92597592  0.58503417    -0.37200
N1903       N  0.14614938  0.92653892  0.68984048    -0.38300
N1904       N  0.14309690  0.99168722  0.68987801    -0.39900
C1905       C  0.64053644  0.88977672  0.21723521    -0.04900
C1906       C  0.62604551  0.87681437  0.22990454     0.09300
C1907       C  0.61079213  0.86302823  0.21915643    -0.02300
C1908       C  0.61076313  0.86136692  0.19605117    -0.00500
C1909       C  0.62494650  0.87465993  0.18332158    -0.04100
C1910       C  0.63948955  0.88926519  0.19409309     0.02900
C1911       C  0.62688643  0.87759009  0.25457701     0.09700
C1912       C  0.59492090  0.85068218  0.23191800     0.35600
C1913       C  0.65273586  0.90453466  0.18145541     0.39100
C1914       C  0.62013361  0.89657806  0.26590068    -0.04500
C1915       C  0.62128632  0.89751160  0.28904640     0.02700
C1916       C  0.62835143  0.87895316  0.30144178    -0.04100
C1917       C  0.63473606  0.85972327  0.28982388    -0.00300
C1918       C  0.63439808  0.85929015  0.26662392    -0.02900
C1919       C  0.61173928  0.91522476  0.25363223     0.36400
C1920       C  0.64194997  0.84019586  0.30140197     0.40000
C1921       C  0.61496766  0.91780609  0.29975550     0.39100
C1922       C  0.64199649  0.83993410  0.25501266     0.36000
C1923       C  0.65660503  0.90365446  0.22803715     0.36700
C1924       C  0.59673280  0.84526557  0.18550118     0.40000
N1925       N  0.61013913  0.93417778  0.30806194    -0.38100
N1926       N  0.60513193  0.93011025  0.24384219    -0.39700
N1927       N  0.64753414  0.82442018  0.31040968    -0.37400
N1928       N  0.64796582  0.82451172  0.24570336    -0.39800
N1929       N  0.58222088  0.84090033  0.24211261    -0.39600
N1930       N  0.58570617  0.83229620  0.17706157    -0.37200
N1931       N  0.66312139  0.91686473  0.17138565    -0.38300
N1932       N  0.66938102  0.91476105  0.23666185    -0.39900
C1933       C  0.63960739  0.88701022  0.71947026    -0.04900
C1934       C  0.62341687  0.87476135  0.73057834     0.09300
C1935       C  0.60727471  0.86332516  0.71856489    -0.02300
C1936       C  0.60727724  0.86414959  0.69545169    -0.00500
C1937       C  0.62352861  0.87636351  0.68425793    -0.04100
C1938       C  0.63975285  0.88774692  0.69636359     0.02900
C1939       C  0.62347022  0.87384583  0.75504162     0.09700
C1940       C  0.59061797  0.85079153  0.73007237     0.35600
C1941       C  0.65710772  0.89955931  0.68508518     0.39100
C1942       C  0.61286812  0.89037361  0.76723022    -0.04500
C1943       C  0.61309608  0.88964234  0.79033840     0.02700
C1944       C  0.62415975  0.87245899  0.80135345    -0.04100
C1945       C  0.63485944  0.85596816  0.78909098    -0.00300
C1946       C  0.63437387  0.85660292  0.76597875    -0.02900
C1947       C  0.60182896  0.90818196  0.75590901     0.36400
C1948       C  0.64579823  0.83796879  0.80021628     0.40000
C1949       C  0.60247966  0.90694654  0.80275664     0.39100
C1950       C  0.64496953  0.83945796  0.75335886     0.36000
C1951       C  0.65618134  0.89874496  0.73191540     0.36700
C1952       C  0.59014017  0.85299025  0.68323881     0.40000
N1953       N  0.59401920  0.92073114  0.81267971    -0.38100
N1954       N  0.59308191  0.92239105  0.74682642    -0.39700
N1955       N  0.65449871  0.82360906  0.80910824    -0.37400
N1956       N  0.65333175  0.82577066  0.74322680    -0.39800
N1957       N  0.57736534  0.84078050  0.73929457    -0.39600
N1958       N  0.57646355  0.84415508  0.67344876    -0.37200
N1959       N  0.67099159  0.90891603  0.67610272    -0.38300
N1960       N  0.66933788  0.90810786  0.74192224    -0.39900
C1961       C  0.72448719  0.86373499  0.63902958    -0.04900
C1962       C  0.73730340  0.87737955  0.62541329     0.09300
C1963       C  0.72697402  0.89134419  0.61011792    -0.02300
C1964       C  0.70389536  0.89173415  0.60843364    -0.00500
C1965       C  0.69093461  0.87795576  0.62193869    -0.04100
C1966       C  0.70139741  0.86391491  0.63726120     0.02900
C1967       C  0.76179554  0.87690482  0.62694713     0.09700
C1968       C  0.74021907  0.90514437  0.59591561     0.35600
C1969       C  0.68845810  0.85008506  0.65172531     0.39100
C1970       C  0.77376431  0.86069807  0.61559234    -0.04500
C1971       C  0.79688285  0.86056770  0.61650241     0.02700
C1972       C  0.80817680  0.87668826  0.62879943    -0.04100
C1973       C  0.79615646  0.89296104  0.64011119    -0.00300
C1974       C  0.77302546  0.89296596  0.63928855    -0.02900
C1975       C  0.76220504  0.84415057  0.60296680     0.36400
C1976       C  0.80759263  0.91026578  0.65182788     0.40000
C1977       C  0.80901100  0.84350616  0.60519319     0.39100
C1978       C  0.76069678  0.90951371  0.65109961     0.36000
C1979       C  0.73514890  0.84963451  0.65499125     0.36700
C1980       C  0.69363037  0.90582956  0.59222811     0.40000
N1981       N  0.81872348  0.82992149  0.59618464    -0.38100
N1982       N  0.75292693  0.83094461  0.59295027    -0.39700
N1983       N  0.81674678  0.92413099  0.66104365    -0.37400
N1984       N  0.75080685  0.92267615  0.66052576    -0.39800
N1985       N  0.75084964  0.91611069  0.58461248    -0.39600
N1986       N  0.68557823  0.91712671  0.57925475    -0.37200
N1987       N  0.67815020  0.83902954  0.66324493    -0.38300
N1988       N  0.74370940  0.83842184  0.66771796    -0.39900
C1989       C  0.64935969  0.87753130  0.46903621    -0.04900
C1990       C  0.63058360  0.88462781  0.48054701     0.09300
C1991       C  0.61210380  0.89219828  0.46880978    -0.02300
C1992       C  0.61229964  0.89241687  0.44567096    -0.00500
C1993       C  0.63060601  0.88413821  0.43416603    -0.04100
C1994       C  0.64922068  0.87686161  0.44590063     0.02900
C1995       C  0.63001593  0.88352295  0.50508274     0.09700
C1996       C  0.59274316  0.89936808  0.48060096     0.35600
C1997       C  0.66842503  0.86918049  0.43415078     0.39100
C1998       C  0.63332631  0.90257578  0.51767891    -0.04500
C1999       C  0.63249532  0.90159861  0.54081551     0.02700
C2000       C  0.62798597  0.88137641  0.55175141    -0.04100
C2001       C  0.62491107  0.86217818  0.53874753    -0.00300
C2002       C  0.62597140  0.86335379  0.51563303    -0.02900
C2003       C  0.63765696  0.92329531  0.50669093     0.36400
C2004       C  0.62036262  0.84101610  0.54874414     0.40000
C2005       C  0.63677403  0.92159341  0.55302573     0.39100
C2006       C  0.62268424  0.84373451  0.50251311     0.36000
C2007       C  0.66887677  0.87115836  0.48107294     0.36700
C2008       C  0.59346891  0.90073047  0.43369581     0.40000
N2009       N  0.64020868  0.93764026  0.56259647    -0.38100
N2010       N  0.64102398  0.93981952  0.49792158    -0.39700
N2011       N  0.61678036  0.82404318  0.55652756    -0.37400
N2012       N  0.62013696  0.82813604  0.49198704    -0.39800
N2013       N  0.57730413  0.90502489  0.49006187    -0.39600
N2014       N  0.57853690  0.90750232  0.42410972    -0.37200
N2015       N  0.68373703  0.86304787  0.42477545    -0.38300
N2016       N  0.68447082  0.86623921  0.49072990    -0.39900
C2017       C  0.22741490  0.87927186  0.64211023    -0.04900
C2018       C  0.23718357  0.86087313  0.63198913     0.09300
C2019       C  0.22372087  0.84432818  0.62297723    -0.02300
C2020       C  0.20065279  0.84635551  0.62367476    -0.00500
C2021       C  0.19081824  0.86469584  0.63395848    -0.04100
C2022       C  0.20433107  0.88111756  0.64322058     0.02900
C2023       C  0.26166299  0.85967819  0.62958902     0.09700
C2024       C  0.23367915  0.82535386  0.61267148     0.35600
C2025       C  0.19456741  0.90059261  0.65270974     0.39100
C2026       C  0.27443135  0.84730212  0.64445683    -0.04500
C2027       C  0.29757319  0.84720745  0.64270748     0.02700
C2028       C  0.30808378  0.85955283  0.62605542    -0.04100
C2029       C  0.29516677  0.87108943  0.61059405    -0.00300
C2030       C  0.27209219  0.87120170  0.61241283    -0.02900
C2031       C  0.26370056  0.83487177  0.66169240     0.36400
C2032       C  0.30559431  0.88228455  0.59233282     0.40000
C2033       C  0.31054138  0.83501073  0.65852116     0.39100
C2034       C  0.25896411  0.88317936  0.59656506     0.36000
C2035       C  0.24120967  0.89658372  0.65089253     0.36700
C2036       C  0.18706173  0.82954626  0.61366730     0.40000
N2037       N  0.32088950  0.82526525  0.67112717    -0.38100
N2038       N  0.25508955  0.82489085  0.67537736    -0.39700
N2039       N  0.31395082  0.89107218  0.57770652    -0.37400
N2040       N  0.24841055  0.89270458  0.58396770    -0.39800
N2041       N  0.24164679  0.81018486  0.60452219    -0.39600
N2042       N  0.17627966  0.81618386  0.60552876    -0.37200
N2043       N  0.18698630  0.91631714  0.66012753    -0.38300
N2044       N  0.25226727  0.91042770  0.65775606    -0.39900
C2045       C  0.35755687  0.87380594  0.72448271    -0.04900
C2046       C  0.37558598  0.86530879  0.73626469     0.09300
C2047       C  0.39344723  0.85610298  0.72478598    -0.02300
C2048       C  0.39337150  0.85557872  0.70161158    -0.00500
C2049       C  0.37541868  0.86431468  0.68980260    -0.04100
C2050       C  0.35745250  0.87331559  0.70134812     0.02900
C2051       C  0.37570911  0.86620670  0.76082926     0.09700
C2052       C  0.41194415  0.84729590  0.73689273     0.35600
C2053       C  0.33855126  0.88157446  0.68943521     0.39100
C2054       C  0.36436461  0.85016220  0.77311303    -0.04500
C2055       C  0.36378086  0.85144955  0.79622638     0.02700
C2056       C  0.37455908  0.86883753  0.80721031    -0.04100
C2057       C  0.38611361  0.88475297  0.79490086    -0.00300
C2058       C  0.38665287  0.88344748  0.77178270    -0.02900
C2059       C  0.35334626  0.83228877  0.76188259     0.36400
C2060       C  0.39683479  0.90289668  0.80599439     0.40000
C2061       C  0.35266535  0.83445984  0.80871481     0.39100
C2062       C  0.39824476  0.89999395  0.75917511     0.36000
C2063       C  0.33911322  0.88311432  0.73625023     0.36700
C2064       C  0.41211564  0.84677316  0.68992530     0.40000
N2065       N  0.34385497  0.82085740  0.81864909    -0.38100
N2066       N  0.34455636  0.81806786  0.75286073    -0.39700
N2067       N  0.40531608  0.91736806  0.81491557    -0.37400
N2068       N  0.40750103  0.91316121  0.74906983    -0.39800
N2069       N  0.42669602  0.84031451  0.74660234    -0.39600
N2070       N  0.42709477  0.83980988  0.68059486    -0.37200
N2071       N  0.32347211  0.88811436  0.67991986    -0.38300
N2072       N  0.32440777  0.89049373  0.74568991    -0.39900
C2073       C  0.47401541  0.89341353  0.61585969    -0.04900
C2074       C  0.48748788  0.87480650  0.61834914     0.09300
C2075       C  0.47771648  0.85411751  0.62184624    -0.02300
C2076       C  0.45463052  0.85194610  0.62289958    -0.00500
C2077       C  0.44077017  0.87067497  0.62072600    -0.04100
C2078       C  0.45091530  0.89151521  0.61721485     0.02900
C2079       C  0.51207665  0.87696773  0.61753915     0.09700
C2080       C  0.49159795  0.83494558  0.62455972     0.35600
C2081       C  0.43792950  0.91131850  0.61479284     0.39100
C2082       C  0.52363468  0.88626049  0.63538087    -0.04500
C2083       C  0.54676670  0.88775596  0.63487136     0.02700
C2084       C  0.55859768  0.87914716  0.61689928    -0.04100
C2085       C  0.54704562  0.86997835  0.59900793    -0.00300
C2086       C  0.52388084  0.86931345  0.59913370    -0.02900
C2087       C  0.51169981  0.89387465  0.65448498     0.36400
C2088       C  0.55900787  0.86163608  0.58022096     0.40000
C2089       C  0.55841676  0.89756592  0.65317932     0.39100
C2090       C  0.51212567  0.86092558  0.58021823     0.36000
C2091       C  0.48405744  0.91464334  0.61169953     0.36700
C2092       C  0.44554200  0.83021405  0.62654388     0.40000
N2093       N  0.56770538  0.90548020  0.66773574    -0.38100
N2094       N  0.50212829  0.89993509  0.66970281    -0.39700
N2095       N  0.56858308  0.85497357  0.56526110    -0.37400
N2096       N  0.50273330  0.85430533  0.56509826    -0.39800
N2097       N  0.50270990  0.81968988  0.62663049    -0.39600
N2098       N  0.43847877  0.81279363  0.62938974    -0.37200
N2099       N  0.42777192  0.92725956  0.61293773    -0.38300
N2100       N  0.49210205  0.93155094  0.60842513    -0.39900
C2101       C  0.39170569  0.85805160  0.22342811    -0.04900
C2102       C  0.38028317  0.87337100  0.23646057     0.09300
C2103       C  0.36847820  0.89047929  0.22623451    -0.02300
C2104       C  0.36811299  0.89229929  0.20311777    -0.00500
C2105       C  0.37904029  0.87662548  0.18998821    -0.04100
C2106       C  0.39090934  0.85950894  0.20029178     0.02900
C2107       C  0.38072205  0.87158238  0.26102871     0.09700
C2108       C  0.35670618  0.90622456  0.23960482     0.35600
C2109       C  0.40172357  0.84293002  0.18710243     0.39100
C2110       C  0.39728850  0.88226668  0.27319478    -0.04500
C2111       C  0.39731804  0.88120447  0.29635110     0.02700
C2112       C  0.38081759  0.86930152  0.30754819    -0.04100
C2113       C  0.36443524  0.85828272  0.29530374    -0.00300
C2114       C  0.36436916  0.85950103  0.27214621    -0.02900
C2115       C  0.41433186  0.89435375  0.26179639     0.36400
C2116       C  0.34714715  0.84633804  0.30652534     0.40000
C2117       C  0.41471629  0.89188521  0.30862372     0.39100
C2118       C  0.34732228  0.84851669  0.25967763     0.36000
C2119       C  0.40425753  0.84075769  0.23391161     0.36700
C2120       C  0.35732450  0.91089984  0.19292024     0.40000
N2121       N  0.42859812  0.90034770  0.31845176    -0.38100
N2122       N  0.42794182  0.90395415  0.25265831    -0.39700
N2123       N  0.33335144  0.83684043  0.31550020    -0.37400
N2124       N  0.33372478  0.83978962  0.24968952    -0.39800
N2125       N  0.34727229  0.91869235  0.25034914    -0.39600
N2126       N  0.34891663  0.92592075  0.18489517    -0.37200
N2127       N  0.41027239  0.82967681  0.17655300    -0.38300
N2128       N  0.41433826  0.82703736  0.24233357    -0.39900
C2129       C  0.48080862  0.86077390  0.35671098    -0.04900
C2130       C  0.49219356  0.87166831  0.37371890     0.09300
C2131       C  0.48030926  0.88064822  0.39143941    -0.02300
C2132       C  0.45720856  0.87894142  0.39205084    -0.00500
C2133       C  0.44577559  0.86837460  0.37484478    -0.04100
C2134       C  0.45769805  0.85910525  0.35726749     0.02900
C2135       C  0.51673645  0.87378931  0.37287397     0.09700
C2136       C  0.49189750  0.89187047  0.40893820     0.35600
C2137       C  0.44615001  0.84855400  0.33931138     0.39100
C2138       C  0.52661458  0.88960862  0.35912903    -0.04500
C2139       C  0.54970900  0.89125656  0.35782816     0.02700
C2140       C  0.56325202  0.87729130  0.37059660    -0.04100
C2141       C  0.55319269  0.86176135  0.38478212    -0.00300
C2142       C  0.53009533  0.85994275  0.38574506    -0.02900
C2143       C  0.51289495  0.90429252  0.34634803     0.36400
C2144       C  0.56647552  0.84806179  0.39904361     0.40000
C2145       C  0.55936924  0.90693115  0.34274309     0.39100
C2146       C  0.51996877  0.84381090  0.40006450     0.36000
C2147       C  0.49292994  0.85149132  0.33848724     0.36700
C2148       C  0.44522883  0.88757964  0.41069973     0.40000
N2149       N  0.56690244  0.91949055  0.33064095    -0.38100
N2150       N  0.50190884  0.91599807  0.33619542    -0.39700
N2151       N  0.57702191  0.83714473  0.41046917    -0.37400
N2152       N  0.51181705  0.83102040  0.41151785    -0.39800
N2153       N  0.50118478  0.90079632  0.42289415    -0.39600
N2154       N  0.43564719  0.89436311  0.42560477    -0.37200
N2155       N  0.43691201  0.84017890  0.32498258    -0.38300
N2156       N  0.50263063  0.84417984  0.32391683    -0.39900
C2157       C  0.35751779  0.87593679  0.47382433    -0.04900
C2158       C  0.37386852  0.86528917  0.48628463     0.09300
C2159       C  0.39144070  0.85478114  0.47551396    -0.02300
C2160       C  0.39274763  0.85501236  0.45239268    -0.00500
C2161       C  0.37664283  0.86608304  0.43988521    -0.04100
C2162       C  0.35896266  0.87648574  0.45071316     0.02900
C2163       C  0.37295723  0.86563548  0.51084544     0.09700
C2164       C  0.40826973  0.84386478  0.48833047     0.35600
C2165       C  0.34188443  0.88724824  0.43807568     0.39100
C2166       C  0.35984822  0.85037989  0.52233266    -0.04500
C2167       C  0.35927336  0.85059757  0.54550404     0.02700
C2168       C  0.37238127  0.86567876  0.55739654    -0.04100
C2169       C  0.38546744  0.88099049  0.54574957    -0.00300
C2170       C  0.38549816  0.88112520  0.52260534    -0.02900
C2171       C  0.34709113  0.83433675  0.51022240     0.36400
C2172       C  0.39964495  0.89612766  0.55744925     0.40000
C2173       C  0.34457093  0.83580169  0.55701298     0.39100
C2174       C  0.39856589  0.89716831  0.51078563     0.36000
C2175       C  0.33919277  0.88631210  0.48486208     0.36700
C2176       C  0.41105500  0.84441063  0.44153169     0.40000
N2177       N  0.33273661  0.82410046  0.56619236    -0.38100
N2178       N  0.33698815  0.82152322  0.50049751    -0.39700
N2179       N  0.41103618  0.90820776  0.56666870    -0.37400
N2180       N  0.40894511  0.90997597  0.50132911    -0.39800
N2181       N  0.42169183  0.83523935  0.49863287    -0.39600
N2182       N  0.42565292  0.83595314  0.43285661    -0.37200
N2183       N  0.32823378  0.89580376  0.42801273    -0.38300
N2184       N  0.32453328  0.89447703  0.49370919    -0.39900
C2185       C  0.86438343  0.39380563  0.72719932    -0.04900
C2186       C  0.87545811  0.37743502  0.73928911     0.09300
C2187       C  0.88778163  0.36135546  0.72812378    -0.02300
C2188       C  0.88859633  0.36129728  0.70496795    -0.00500
C2189       C  0.87720507  0.37747387  0.69280245    -0.04100
C2190       C  0.86531491  0.39389566  0.70405260     0.02900
C2191       C  0.87419144  0.37721410  0.76385801     0.09700
C2192       C  0.89971891  0.34493040  0.74055147     0.35600
C2193       C  0.85470573  0.41139194  0.69185049     0.39100
C2194       C  0.85897102  0.36347090  0.77462517    -0.04500
C2195       C  0.85749320  0.36352984  0.79775468     0.02700
C2196       C  0.87134471  0.37729584  0.81035805    -0.04100
C2197       C  0.88660578  0.39106931  0.79945361    -0.00300
C2198       C  0.88805882  0.39091840  0.77633004    -0.02900
C2199       C  0.84478842  0.34926640  0.76180996     0.36400
C2200       C  0.90135478  0.40496598  0.81197439     0.40000
C2201       C  0.84109496  0.34998380  0.80843990     0.39100
C2202       C  0.90409820  0.40461485  0.76527041     0.36000
C2203       C  0.85211764  0.41063836  0.73866955     0.36700
C2204       C  0.90060855  0.34414418  0.69368673     0.40000
N2205       N  0.82789698  0.33918688  0.81680946    -0.38100
N2206       N  0.83354576  0.33788754  0.75156422    -0.39700
N2207       N  0.91309602  0.41608353  0.82194777    -0.37400
N2208       N  0.91690732  0.41546261  0.75636741    -0.39800
N2209       N  0.90928713  0.33188703  0.75050967    -0.39600
N2210       N  0.91012750  0.33042696  0.68467143    -0.37200
N2211       N  0.84637357  0.42540657  0.68209411    -0.38300
N2212       N  0.84240927  0.42408157  0.74788669    -0.39900
C2213       C  0.87120838  0.27497005  0.64736950    -0.04900
C2214       C  0.87988326  0.26331538  0.62936177     0.09300
C2215       C  0.88798025  0.27487989  0.61099698    -0.02300
C2216       C  0.88747857  0.29801288  0.61066586    -0.00500
C2217       C  0.87833263  0.30967061  0.62846769    -0.04100
C2218       C  0.87005447  0.29808757  0.64676418     0.02900
C2219       C  0.87949299  0.23877629  0.62930740     0.09700
C2220       C  0.89664089  0.26290776  0.59236626     0.35600
C2221       C  0.86065723  0.30994433  0.66511564     0.39100
C2222       C  0.86250265  0.22761324  0.61826126    -0.04500
C2223       C  0.86167336  0.20449389  0.61851153     0.02700
C2224       C  0.87781196  0.19233304  0.62991486    -0.04100
C2225       C  0.89499119  0.20356702  0.64078975    -0.00300
C2226       C  0.89582310  0.22673051  0.64044577    -0.02900
C2227       C  0.84569101  0.24002899  0.60683017     0.36400
C2228       C  0.91221130  0.19131029  0.65175800     0.40000
C2229       C  0.84366879  0.19337731  0.60766478     0.39100
C2230       C  0.91351935  0.23824962  0.65144035     0.36000
C2231       C  0.86355369  0.26310127  0.66654165     0.36700
C2232       C  0.89582076  0.30980535  0.59171309     0.40000
N2233       N  0.82912852  0.18483724  0.59895188    -0.38100
N2234       N  0.83233825  0.24998065  0.59770269    -0.39700
N2235       N  0.92597651  0.18152824  0.66044991    -0.37400
N2236       N  0.92760447  0.24750631  0.66020584    -0.39800
N2237       N  0.90343971  0.25333554  0.57746407    -0.39600
N2238       N  0.90249228  0.31921785  0.57661522    -0.37200
N2239       N  0.85307570  0.31936003  0.67973937    -0.38300
N2240       N  0.85765654  0.25357460  0.68188589    -0.39900
C2241       C  0.85977961  0.36812504  0.27519141    -0.04900
C2242       C  0.87327259  0.38308539  0.26379468     0.09300
C2243       C  0.88641717  0.39802130  0.27562373    -0.02300
C2244       C  0.88651076  0.39764053  0.29878994    -0.00500
C2245       C  0.87341732  0.38224338  0.31030613    -0.04100
C2246       C  0.85993923  0.36756894  0.29833505     0.02900
C2247       C  0.87436709  0.38236390  0.23926568     0.09700
C2248       C  0.89981086  0.41381739  0.26386134     0.35600
C2249       C  0.84694962  0.35115336  0.30969981     0.39100
C2250       C  0.85989908  0.39508800  0.22646422    -0.04500
C2251       C  0.86066423  0.39391574  0.20333339     0.02700
C2252       C  0.87610690  0.38008944  0.19281401    -0.04100
C2253       C  0.89065906  0.36743889  0.20578227    -0.00300
C2254       C  0.88971759  0.36854995  0.22888628    -0.02900
C2255       C  0.84414534  0.40930551  0.23718987     0.36400
C2256       C  0.90715698  0.35378223  0.19545647     0.40000
C2257       C  0.84498765  0.40639286  0.19045661     0.39100
C2258       C  0.90462000  0.35550591  0.24210870     0.36000
C2259       C  0.84583310  0.35316838  0.26298765     0.36700
C2260       C  0.89972942  0.41347019  0.31071472     0.40000
N2261       N  0.83245246  0.41631279  0.18019271    -0.38100
N2262       N  0.83161487  0.42065454  0.24579373    -0.39700
N2263       N  0.92036730  0.34289014  0.18729656    -0.37400
N2264       N  0.91646706  0.34513406  0.25273139    -0.39800
N2265       N  0.91042858  0.42644704  0.25443205    -0.39600
N2266       N  0.91026903  0.42608875  0.32023795    -0.37200
N2267       N  0.83662125  0.33796602  0.31867095    -0.38300
N2268       N  0.83466192  0.34132512  0.25320006    -0.39900
C2269       C  0.86143071  0.39057488  0.47861492    -0.04900
C2270       C  0.87571302  0.37587733  0.48938566     0.09300
C2271       C  0.88958586  0.36223806  0.47692333    -0.02300
C2272       C  0.88940141  0.36343912  0.45379041    -0.00500
C2273       C  0.87523948  0.37830783  0.44287041    -0.04100
C2274       C  0.86117871  0.39183013  0.45547147     0.02900
C2275       C  0.87648362  0.37512156  0.51395112     0.09700
C2276       C  0.90401555  0.34686936  0.48799769     0.35600
C2277       C  0.84692614  0.40760431  0.44474316     0.39100
C2278       C  0.86473221  0.35886349  0.52555763    -0.04500
C2279       C  0.86521414  0.35842751  0.54872039     0.02700
C2280       C  0.87751420  0.37427063  0.56043711    -0.04100
C2281       C  0.88947506  0.39039350  0.54873510    -0.00300
C2282       C  0.88894928  0.39078590  0.52559515    -0.02900
C2283       C  0.85213387  0.34259135  0.51358858     0.36400
C2284       C  0.90170472  0.40712925  0.56048218     0.40000
C2285       C  0.85355003  0.34126256  0.56043829     0.39100
C2286       C  0.90115322  0.40741374  0.51367354     0.36000
C2287       C  0.84701097  0.40444469  0.49146758     0.36700
C2288       C  0.90337182  0.34880799  0.44131020     0.40000
N2289       N  0.84431969  0.32752712  0.56979211    -0.38100
N2290       N  0.84213893  0.32959079  0.50399869    -0.39700
N2291       N  0.91142703  0.42047016  0.56988803    -0.37400
N2292       N  0.91084189  0.42067979  0.50411758    -0.39800
N2293       N  0.91543953  0.33455827  0.49686643    -0.39600
N2294       N  0.91456967  0.33708430  0.43146987    -0.37200
N2295       N  0.83555576  0.42020623  0.43621589    -0.38300
N2296       N  0.83555308  0.41547192  0.50181040    -0.39900
C2297       C  0.88534222  0.72621515  0.64154451    -0.04900
C2298       C  0.87169302  0.73840925  0.62735970     0.09300
C2299       C  0.85840195  0.72734788  0.61195760    -0.02300
C2300       C  0.85913191  0.70422701  0.61036911    -0.00500
C2301       C  0.87294893  0.69196082  0.62444040    -0.04100
C2302       C  0.88595011  0.70308881  0.64015439     0.02900
C2303       C  0.87193885  0.76300755  0.62815616     0.09700
C2304       C  0.84402528  0.73984904  0.59769082     0.35600
C2305       C  0.89949441  0.69074776  0.65537958     0.39100
C2306       C  0.88788005  0.77480790  0.61620509    -0.04500
C2307       C  0.88845212  0.79795743  0.61709132     0.02700
C2308       C  0.87305911  0.80954264  0.63002848    -0.04100
C2309       C  0.85710508  0.79764061  0.64204523    -0.00300
C2310       C  0.85649667  0.77447250  0.64098945    -0.02900
C2311       C  0.90373886  0.76301269  0.60298402     0.36400
C2312       C  0.84086694  0.80920582  0.65501395     0.40000
C2313       C  0.90539508  0.80976641  0.60521704     0.39100
C2314       C  0.83985230  0.76235589  0.65294436     0.36000
C2315       C  0.89867338  0.73755900  0.65768041     0.36700
C2316       C  0.84632638  0.69315623  0.59362259     0.40000
N2317       N  0.91891323  0.81919584  0.59576447    -0.38100
N2318       N  0.91635601  0.75352845  0.59246627    -0.39700
N2319       N  0.82794577  0.81845535  0.66537625    -0.37400
N2320       N  0.82652265  0.75265849  0.66239016    -0.39800
N2321       N  0.83248299  0.74986113  0.58640783    -0.39600
N2322       N  0.83621623  0.68428276  0.58021118    -0.37200
N2323       N  0.91026504  0.68088781  0.66753369    -0.38300
N2324       N  0.90926677  0.74666564  0.67054923    -0.39900
C2325       C  0.88944449  0.61343207  0.72366543    -0.04900
C2326       C  0.87563126  0.62844442  0.73455863     0.09300
C2327       C  0.86252069  0.64300323  0.72226650    -0.02300
C2328       C  0.86267771  0.64213536  0.69915596    -0.00500
C2329       C  0.87616036  0.62678891  0.68813481    -0.04100
C2330       C  0.88987798  0.61271282  0.70051046     0.02900
C2331       C  0.87449951  0.62863909  0.75906955     0.09700
C2332       C  0.84889501  0.65892912  0.73350007     0.35600
C2333       C  0.90394973  0.59701374  0.68951191     0.39100
C2334       C  0.88927853  0.64156587  0.77131016    -0.04500
C2335       C  0.88818849  0.64170465  0.79442960     0.02700
C2336       C  0.87226064  0.62884499  0.80546983    -0.04100
C2337       C  0.85729202  0.61611214  0.79310750    -0.00300
C2338       C  0.85839595  0.61608055  0.76998845    -0.02900
C2339       C  0.90556152  0.65478734  0.76002965     0.36400
C2340       C  0.84023422  0.60363165  0.80409338     0.40000
C2341       C  0.90393327  0.65461091  0.80681276     0.39100
C2342       C  0.84278721  0.60332728  0.75731363     0.36000
C2343       C  0.90296579  0.59852180  0.73638446     0.36700
C2344       C  0.84939594  0.65753621  0.68673919     0.40000
N2345       N  0.91647364  0.66489877  0.81670597    -0.38100
N2346       N  0.91851741  0.66535894  0.75100720    -0.39700
N2347       N  0.82660321  0.59372230  0.81287050    -0.37400
N2348       N  0.83031595  0.59326002  0.74711926    -0.39800
N2349       N  0.83808944  0.67165299  0.74251250    -0.39600
N2350       N  0.83882223  0.66980212  0.67680907    -0.37200
N2351       N  0.91523278  0.58452379  0.68075386    -0.38300
N2352       N  0.91369347  0.58663696  0.74660605    -0.39900
C2353       C  0.86191992  0.52386290  0.63363215    -0.04900
C2354       C  0.87712573  0.51277133  0.62024184     0.09300
C2355       C  0.89164085  0.52490439  0.60691293    -0.02300
C2356       C  0.89092951  0.54809151  0.60692233    -0.00500
C2357       C  0.87601160  0.55934997  0.62074378    -0.04100
C2358       C  0.86148994  0.54701492  0.63410589     0.02900
C2359       C  0.87799112  0.48820974  0.62060850     0.09700
C2360       C  0.90733894  0.51343718  0.59322819     0.35600
C2361       C  0.84656280  0.55801551  0.64899459     0.39100
C2362       C  0.86522456  0.47584525  0.60577151    -0.04500
C2363       C  0.86500839  0.45269697  0.60705168     0.02700
C2364       C  0.87745653  0.44177982  0.62335486    -0.04100
C2365       C  0.89043022  0.45424496  0.63804026    -0.00300
C2366       C  0.89081898  0.47734990  0.63652585    -0.02900
C2367       C  0.85232907  0.48703266  0.58917764     0.36400
C2368       C  0.90274962  0.44338448  0.65530183     0.40000
C2369       C  0.85250486  0.44014198  0.59113596     0.39100
C2370       C  0.90436477  0.49005332  0.65142046     0.36000
C2371       C  0.84674325  0.51130900  0.64703876     0.36700
C2372       C  0.90502993  0.56024331  0.59205598     0.40000
N2373       N  0.84258707  0.43011335  0.57840915    -0.38100
N2374       N  0.84208533  0.49601009  0.57593664    -0.39700
N2375       N  0.91249453  0.43467105  0.66908792    -0.37400
N2376       N  0.91522922  0.50021872  0.66322744    -0.39800
N2377       N  0.91988689  0.50424100  0.58237124    -0.39600
N2378       N  0.91620393  0.56991411  0.58011431    -0.37200
N2379       N  0.83466796  0.56675734  0.66091230    -0.38300
N2380       N  0.83464484  0.50120051  0.65763734    -0.39900
C2381       C  0.86065739  0.62270412  0.26994812    -0.04900
C2382       C  0.87778685  0.63374296  0.25900880     0.09300
C2383       C  0.89446811  0.64403606  0.27129662    -0.02300
C2384       C  0.89398364  0.64347257  0.29446309    -0.00500
C2385       C  0.87699856  0.63208364  0.30560793    -0.04100
C2386       C  0.86043616  0.62149381  0.29308812     0.02900
C2387       C  0.87833688  0.63441221  0.23442667     0.09700
C2388       C  0.91206733  0.65539925  0.25997579     0.35600
C2389       C  0.84352135  0.60859954  0.30382672     0.39100
C2390       C  0.86785914  0.65155239  0.22297438    -0.04500
C2391       C  0.86821726  0.65214186  0.19979280     0.02700
C2392       C  0.87917638  0.63547117  0.18775160    -0.04100
C2393       C  0.89001206  0.61847178  0.19950850    -0.00300
C2394       C  0.88940678  0.61791824  0.22266419    -0.02900
C2395       C  0.85651675  0.66851928  0.23519342     0.36400
C2396       C  0.90245731  0.60177557  0.18801003     0.40000
C2397       C  0.85677519  0.66974733  0.18855401     0.39100
C2398       C  0.90020939  0.60029660  0.23451588     0.36000
C2399       C  0.84314120  0.61270212  0.25728007     0.36700
C2400       C  0.91060502  0.65536277  0.30668824     0.40000
N2401       N  0.84768989  0.68388804  0.17969723    -0.38100
N2402       N  0.84748332  0.68199470  0.24503085    -0.39700
N2403       N  0.91241529  0.58841623  0.17893430    -0.37400
N2404       N  0.90878735  0.58623941  0.24398611    -0.39800
N2405       N  0.92608671  0.66442248  0.25087164    -0.39600
N2406       N  0.92382680  0.66493716  0.31640678    -0.37200
N2407       N  0.83006730  0.59822658  0.31234227    -0.38300
N2408       N  0.82910882  0.60489188  0.24713372    -0.39900
C2409       C  0.88475879  0.48207721  0.39059619    -0.04900
C2410       C  0.87336818  0.49283434  0.37354051     0.09300
C2411       C  0.86208704  0.48043260  0.35758805    -0.02300
C2412       C  0.86202598  0.45732007  0.35877370    -0.00500
C2413       C  0.87331425  0.44650745  0.37593501    -0.04100
C2414       C  0.88481044  0.45896112  0.39176318     0.02900
C2415       C  0.87324803  0.51732739  0.37241014     0.09700
C2416       C  0.85072710  0.49152951  0.33984332     0.35600
C2417       C  0.89632965  0.44801601  0.40951117     0.39100
C2418       C  0.88830934  0.52844060  0.35879984    -0.04500
C2419       C  0.88834187  0.55157706  0.35789712     0.02700
C2420       C  0.87350416  0.56375567  0.37092968    -0.04100
C2421       C  0.85847633  0.55250823  0.38464030    -0.00300
C2422       C  0.85820924  0.52937309  0.38515452    -0.02900
C2423       C  0.90384314  0.51597454  0.34580849     0.36400
C2424       C  0.84393887  0.56465957  0.39902958     0.40000
C2425       C  0.90329483  0.56276542  0.34311190     0.39100
C2426       C  0.84252814  0.51786354  0.39889944     0.36000
C2427       C  0.89647065  0.49487870  0.40689740     0.36700
C2428       C  0.85110496  0.44466882  0.34179745     0.40000
N2429       N  0.91519133  0.57168976  0.33128745    -0.38100
N2430       N  0.91621695  0.50596628  0.33548826    -0.39700
N2431       N  0.83242823  0.57434973  0.41058330    -0.37400
N2432       N  0.83001953  0.50862819  0.40981523    -0.39800
N2433       N  0.84175472  0.50043303  0.32566018    -0.39600
N2434       N  0.84247302  0.43456620  0.32822572    -0.37200
N2435       N  0.90552825  0.43924029  0.42363167    -0.38300
N2436       N  0.90577673  0.50514939  0.41988218    -0.39900
C2437       C  0.85599970  0.63777887  0.47326479    -0.04900
C2438       C  0.87185267  0.62559078  0.48486613     0.09300
C2439       C  0.88770658  0.61344679  0.47326287    -0.02300
C2440       C  0.88816744  0.61400531  0.45010663    -0.00500
C2441       C  0.87264714  0.62673869  0.43831388    -0.04100
C2442       C  0.85628561  0.63832077  0.45011525     0.02900
C2443       C  0.87204639  0.62582564  0.50942065     0.09700
C2444       C  0.90345380  0.60022275  0.48526809     0.35600
C2445       C  0.84003571  0.65139404  0.43862451     0.39100
C2446       C  0.85949978  0.61043820  0.52134271    -0.04500
C2447       C  0.85993794  0.61051201  0.54449533     0.02700
C2448       C  0.87259137  0.62633114  0.55587223    -0.04100
C2449       C  0.88467419  0.64210686  0.54386196    -0.00300
C2450       C  0.88466711  0.64161665  0.52072139    -0.02900
C2451       C  0.84617327  0.59451118  0.50970016     0.36400
C2452       C  0.89631393  0.65947297  0.55528126     0.40000
C2453       C  0.84790004  0.59384908  0.55655575     0.39100
C2454       C  0.89763335  0.65738221  0.50844782     0.36000
C2455       C  0.83943135  0.64989586  0.48527759     0.36700
C2456       C  0.90422402  0.60081702  0.43852583     0.40000
N2457       N  0.83835430  0.58053807  0.56620029    -0.38100
N2458       N  0.83548567  0.58188264  0.50036329    -0.39700
N2459       N  0.90539978  0.67342213  0.56443719    -0.37400
N2460       N  0.90803504  0.66987338  0.49860326    -0.39800
N2461       N  0.91592847  0.58962806  0.49490762    -0.39600
N2462       N  0.91702719  0.59025979  0.42933305    -0.37200
N2463       N  0.82701683  0.66178215  0.42949108    -0.38300
N2464       N  0.82622089  0.65950877  0.49491137    -0.39900
C2465       C  0.38790223  0.11605450  0.73456126    -0.04900
C2466       C  0.37190786  0.12895897  0.74515986     0.09300
C2467       C  0.35707051  0.14150416  0.73257664    -0.02300
C2468       C  0.35802065  0.14089862  0.70944091    -0.00500
C2469       C  0.37385031  0.12768769  0.69877588    -0.04100
C2470       C  0.38894708  0.11547279  0.71147004     0.02900
C2471       C  0.37064973  0.12892773  0.76967037     0.09700
C2472       C  0.34071599  0.15486680  0.74349672     0.35600
C2473       C  0.40604464  0.10283204  0.70081379     0.39100
C2474       C  0.38541265  0.14173301  0.78204200    -0.04500
C2475       C  0.38576461  0.14004912  0.80512373     0.02700
C2476       C  0.37117066  0.12557175  0.81607338    -0.04100
C2477       C  0.35578851  0.11337715  0.80357098    -0.00300
C2478       C  0.35561672  0.11503581  0.78047365    -0.02900
C2479       C  0.40032562  0.15660623  0.77090152     0.36400
C2480       C  0.34063251  0.09842036  0.81426157     0.40000
C2481       C  0.40089843  0.15365237  0.81751897     0.39100
C2482       C  0.34026548  0.10207351  0.76768182     0.36000
C2483       C  0.40322365  0.10324756  0.74753542     0.36700
C2484       C  0.34220861  0.15331682  0.69666544     0.40000
N2485       N  0.41299796  0.16447783  0.82738878    -0.38100
N2486       N  0.41218896  0.16847151  0.76198157    -0.39700
N2487       N  0.32849033  0.08651231  0.82274383    -0.37400
N2488       N  0.32803041  0.09179506  0.75740960    -0.39800
N2489       N  0.32763841  0.16548555  0.75222077    -0.39600
N2490       N  0.32961078  0.16321692  0.68646079    -0.37200
N2491       N  0.41972434  0.09282032  0.69229834    -0.38300
N2492       N  0.41540122  0.09309389  0.75799024    -0.39900
C2493       C  0.22637694  0.11276382  0.61451531    -0.04900
C2494       C  0.23754413  0.12017849  0.63333259     0.09300
C2495       C  0.22554860  0.12679286  0.65189561    -0.02300
C2496       C  0.20242261  0.12560966  0.65189601    -0.00500
C2497       C  0.19088919  0.11863585  0.63279092    -0.04100
C2498       C  0.20323790  0.11232336  0.61401746     0.02900
C2499       C  0.26208414  0.12110446  0.63349835     0.09700
C2500       C  0.23712231  0.13526655  0.67092334     0.35600
C2501       C  0.19247730  0.10502935  0.59405946     0.39100
C2502       C  0.27311138  0.13816117  0.62241509    -0.04500
C2503       C  0.29624085  0.13865669  0.62179983     0.02700
C2504       C  0.30865990  0.12226852  0.63277529    -0.04100
C2505       C  0.29738391  0.10526955  0.64412314    -0.00300
C2506       C  0.27423990  0.10471365  0.64437605    -0.02900
C2507       C  0.26051893  0.15528159  0.61164835     0.36400
C2508       C  0.30937137  0.08845446  0.65600634     0.40000
C2509       C  0.30704355  0.15569474  0.60911184     0.39100
C2510       C  0.26281489  0.08724997  0.65590805     0.36000
C2511       C  0.23885587  0.10553276  0.59557759     0.36700
C2512       C  0.19081286  0.13203618  0.67164694     0.40000
N2513       N  0.31558475  0.16928994  0.59893561    -0.38100
N2514       N  0.25040556  0.16890029  0.60310186    -0.39700
N2515       N  0.31883311  0.07494821  0.66544422    -0.37400
N2516       N  0.25365419  0.07340969  0.66517181    -0.39800
N2517       N  0.24637140  0.14211477  0.68602974    -0.39600
N2518       N  0.18169644  0.13710009  0.68750514    -0.37200
N2519       N  0.18405944  0.09923087  0.57804931    -0.38300
N2520       N  0.24885582  0.09979543  0.58050983    -0.39900
C2521       C  0.35999683  0.11673260  0.28181394    -0.04900
C2522       C  0.37307434  0.13194696  0.27024763     0.09300
C2523       C  0.38599801  0.14719051  0.28196964    -0.02300
C2524       C  0.38648439  0.14672445  0.30512767    -0.00500
C2525       C  0.37351179  0.13135032  0.31681339    -0.04100
C2526       C  0.35991698  0.11664490  0.30496546     0.02900
C2527       C  0.37358216  0.13164501  0.24564593     0.09700
C2528       C  0.39886064  0.16335353  0.27009758     0.35600
C2529       C  0.34526533  0.10181048  0.31651445     0.39100
C2530       C  0.35608714  0.14056929  0.23344247    -0.04500
C2531       C  0.35643678  0.14000889  0.21026754     0.02700
C2532       C  0.37469903  0.13099834  0.19894219    -0.04100
C2533       C  0.39269405  0.12293512  0.21144605    -0.00300
C2534       C  0.39174723  0.12264078  0.23459351    -0.02900
C2535       C  0.33778787  0.15060292  0.24485493     0.36400
C2536       C  0.41247478  0.11510083  0.20082867     0.40000
C2537       C  0.33826942  0.14965285  0.19826943     0.39100
C2538       C  0.40940589  0.11275152  0.24717700     0.36000
C2539       C  0.34674589  0.10099757  0.26981256     0.36700
C2540       C  0.40107690  0.16151265  0.31677923     0.40000
N2541       N  0.32374011  0.15736131  0.18877203    -0.38100
N2542       N  0.32323824  0.15861512  0.25401730    -0.39700
N2543       N  0.42850432  0.10915116  0.19259650    -0.37400
N2544       N  0.42338329  0.10478149  0.25726723    -0.39800
N2545       N  0.40906903  0.17624985  0.26057619    -0.39600
N2546       N  0.41278692  0.17325351  0.32605390    -0.37200
N2547       N  0.33352106  0.09005427  0.32573820    -0.38300
N2548       N  0.33618391  0.08846521  0.26020805    -0.39900
C2549       C  0.36231603  0.13573087  0.48482252    -0.04900
C2550       C  0.37678629  0.12126303  0.49562464     0.09300
C2551       C  0.39116097  0.10807447  0.48324358    -0.02300
C2552       C  0.39114656  0.10938560  0.46010617    -0.00500
C2553       C  0.37682159  0.12409675  0.44918276    -0.04100
C2554       C  0.36237980  0.13725405  0.46172174     0.02900
C2555       C  0.37729311  0.12051778  0.52016683     0.09700
C2556       C  0.40611964  0.09331117  0.49442458     0.35600
C2557       C  0.34709380  0.15197287  0.45091084     0.39100
C2558       C  0.36328338  0.10616338  0.53174874    -0.04500
C2559       C  0.36276768  0.10656236  0.55490967     0.02700
C2560       C  0.37656236  0.12113160  0.56663322    -0.04100
C2561       C  0.39114639  0.13494159  0.55494202    -0.00300
C2562       C  0.39134919  0.13474765  0.53180882    -0.02900
C2563       C  0.34927422  0.09111650  0.51974471     0.36400
C2564       C  0.40645569  0.14892310  0.56668423     0.40000
C2565       C  0.34736860  0.09262022  0.56657372     0.39100
C2566       C  0.40597529  0.14927486  0.51987678     0.36000
C2567       C  0.34729558  0.14902712  0.49759624     0.36700
C2568       C  0.40644537  0.09609990  0.44765699     0.40000
N2569       N  0.33504322  0.08155706  0.57589435    -0.38100
N2570       N  0.33817218  0.07906399  0.51013509    -0.39700
N2571       N  0.41870678  0.15999533  0.57607929    -0.37400
N2572       N  0.41760825  0.16084762  0.51029498    -0.39800
N2573       N  0.41804724  0.08157758  0.50341225    -0.39600
N2574       N  0.41865869  0.08549810  0.43773938    -0.37200
N2575       N  0.33492825  0.16374236  0.44229463    -0.38300
N2576       N  0.33530489  0.15955613  0.50785188    -0.39900
C2577       C  0.72643747  0.11201206  0.61986482    -0.04900
C2578       C  0.73734944  0.12850118  0.63194361     0.09300
C2579       C  0.72503591  0.14487179  0.64265525    -0.02300
C2580       C  0.70192105  0.14461083  0.64157038    -0.00500
C2581       C  0.69088588  0.12838465  0.62901375    -0.04100
C2582       C  0.70338555  0.11222327  0.61795835     0.02900
C2583       C  0.76191650  0.12911804  0.63246659     0.09700
C2584       C  0.73622133  0.16218142  0.65460878     0.35600
C2585       C  0.69276473  0.09636299  0.60371141     0.39100
C2586       C  0.77361173  0.13475768  0.61336061    -0.04500
C2587       C  0.79670690  0.13374535  0.61305368     0.02700
C2588       C  0.80862246  0.12847323  0.63246659    -0.04100
C2589       C  0.79662493  0.12394739  0.65201138    -0.00300
C2590       C  0.77345318  0.12369827  0.65176311    -0.02900
C2591       C  0.76171846  0.14174753  0.59390847     0.36400
C2592       C  0.80776531  0.11920639  0.67252532     0.40000
C2593       C  0.80781898  0.13815730  0.59245932     0.39100
C2594       C  0.76138777  0.11757900  0.67137940     0.36000
C2595       C  0.73905282  0.09488739  0.60918047     0.36700
C2596       C  0.68963074  0.16084519  0.65388477     0.40000
N2597       N  0.81644273  0.14150091  0.57587367    -0.38100
N2598       N  0.75217943  0.14734281  0.57846219    -0.39700
N2599       N  0.81646079  0.11563292  0.68903918    -0.37400
N2600       N  0.75177003  0.11274203  0.68702219    -0.39800
N2601       N  0.74516319  0.17595088  0.66416678    -0.39600
N2602       N  0.67987071  0.17380640  0.66372029    -0.37200
N2603       N  0.68439174  0.08378382  0.59220056    -0.38300
N2604       N  0.74917988  0.08131232  0.60063123    -0.39900
C2605       C  0.63918867  0.11384803  0.72782963    -0.04900
C2606       C  0.62399975  0.12681936  0.73948914     0.09300
C2607       C  0.60897635  0.14013211  0.72793064    -0.02300
C2608       C  0.60892895  0.14022580  0.70479439    -0.00500
C2609       C  0.62442439  0.12756671  0.69310427    -0.04100
C2610       C  0.63969562  0.11452542  0.70472967     0.02900
C2611       C  0.62385056  0.12628877  0.76402084     0.09700
C2612       C  0.59356692  0.15372140  0.73989017     0.35600
C2613       C  0.65647288  0.10240193  0.69299870     0.39100
C2614       C  0.64024095  0.13741591  0.77595704    -0.04500
C2615       C  0.64083288  0.13602776  0.79906238     0.02700
C2616       C  0.62479182  0.12359158  0.81053089    -0.04100
C2617       C  0.60811476  0.11277439  0.79835464    -0.00300
C2618       C  0.60774208  0.11408996  0.77524864    -0.02900
C2619       C  0.65644858  0.15045785  0.76433448     0.36400
C2620       C  0.59151024  0.09971356  0.80929828     0.40000
C2621       C  0.65773671  0.14795562  0.81087158     0.39100
C2622       C  0.59086911  0.10264591  0.76289879     0.36000
C2623       C  0.65419997  0.09966189  0.73968580     0.36700
C2624       C  0.59235318  0.15265563  0.69303943     0.40000
N2625       N  0.67130078  0.15743586  0.82020483    -0.38100
N2626       N  0.66933396  0.16082602  0.75498259    -0.39700
N2627       N  0.57802268  0.08931394  0.81769309    -0.37400
N2628       N  0.57738981  0.09360327  0.75302844    -0.39800
N2629       N  0.58127976  0.16457483  0.74943267    -0.39600
N2630       N  0.57908008  0.16241924  0.68359125    -0.37200
N2631       N  0.66994009  0.09285649  0.68364706    -0.38300
N2632       N  0.66609955  0.08833425  0.74921475    -0.39900
C2633       C  0.47565450  0.11401502  0.61563139    -0.04900
C2634       C  0.48751052  0.12650319  0.63110442     0.09300
C2635       C  0.47615551  0.13862110  0.64720959    -0.02300
C2636       C  0.45301081  0.13833889  0.64778950    -0.00500
C2637       C  0.44111301  0.12586483  0.63227143    -0.04100
C2638       C  0.45252973  0.11371929  0.61616656     0.02900
C2639       C  0.51203684  0.12699011  0.63031162     0.09700
C2640       C  0.48837374  0.15129490  0.66323057     0.35600
C2641       C  0.44047454  0.10147916  0.59966314     0.39100
C2642       C  0.52289183  0.14147616  0.61586617    -0.04500
C2643       C  0.54601053  0.14164837  0.61473141     0.02700
C2644       C  0.55846788  0.12756770  0.62838671    -0.04100
C2645       C  0.54750248  0.11344059  0.64325141    -0.00300
C2646       C  0.52437734  0.11290917  0.64391626    -0.02900
C2647       C  0.51016758  0.15618298  0.60212312     0.36400
C2648       C  0.55995718  0.10014114  0.65860952     0.40000
C2649       C  0.55687167  0.15589459  0.59902835     0.39100
C2650       C  0.51319616  0.09778796  0.65853400     0.36000
C2651       C  0.48733520  0.10146523  0.59915795     0.36700
C2652       C  0.44146947  0.15034172  0.66476839     0.40000
N2653       N  0.56551091  0.16724883  0.58647336    -0.38100
N2654       N  0.49996234  0.16790900  0.59120797    -0.39700
N2655       N  0.56991049  0.08968183  0.67095789    -0.37400
N2656       N  0.50424150  0.08567566  0.67012239    -0.39800
N2657       N  0.49818933  0.16133726  0.67601778    -0.39600
N2658       N  0.43222406  0.15986685  0.67832395    -0.37200
N2659       N  0.43082887  0.09178212  0.58648320    -0.38300
N2660       N  0.49670511  0.09146986  0.58603699    -0.39900
C2661       C  0.61155575  0.10774696  0.22857777    -0.04900
C2662       C  0.62379174  0.12403714  0.23963307     0.09300
C2663       C  0.63600796  0.13950865  0.22745176    -0.02300
C2664       C  0.63586499  0.13883956  0.20433985    -0.00500
C2665       C  0.62368638  0.12249281  0.19322584    -0.04100
C2666       C  0.61153158  0.10693727  0.20543846     0.02900
C2667       C  0.62397571  0.12491606  0.26417461     0.09700
C2668       C  0.64881026  0.15609727  0.23878343     0.35600
C2669       C  0.59957759  0.08964464  0.19423612     0.39100
C2670       C  0.63675173  0.10987374  0.27625269    -0.04500
C2671       C  0.63756688  0.11114971  0.29933784     0.02700
C2672       C  0.62533141  0.12738697  0.31062580    -0.04100
C2673       C  0.61251359  0.14245546  0.29839608    -0.00300
C2674       C  0.61184849  0.14117212  0.27528872    -0.02900
C2675       C  0.64914072  0.09306943  0.26484140     0.36400
C2676       C  0.59941373  0.15892982  0.30946364     0.40000
C2677       C  0.65165011  0.09611432  0.31131575     0.39100
C2678       C  0.59845495  0.15645108  0.26285590     0.36000
C2679       C  0.59910746  0.09173666  0.24107238     0.36700
C2680       C  0.64769497  0.15546942  0.19201786     0.40000
N2681       N  0.66288985  0.08413121  0.32085437    -0.38100
N2682       N  0.65887507  0.07957419  0.25572842    -0.39700
N2683       N  0.58895927  0.17214096  0.31818242    -0.37400
N2684       N  0.58782414  0.16864046  0.25289445    -0.39800
N2685       N  0.65896205  0.16932712  0.24788218    -0.39600
N2686       N  0.65706667  0.16876797  0.18218710    -0.37200
N2687       N  0.59009947  0.07583827  0.18526368    -0.38300
N2688       N  0.58928608  0.07890374  0.25107593    -0.39900
C2689       C  0.47512300  0.12259032  0.35898025    -0.04900
C2690       C  0.48779704  0.12865049  0.37737914     0.09300
C2691       C  0.47732795  0.13479599  0.39707733    -0.02300
C2692       C  0.45424613  0.13488118  0.39839110    -0.00500
C2693       C  0.44157076  0.12826906  0.38016946    -0.04100
C2694       C  0.45204091  0.12212929  0.36044782     0.02900
C2695       C  0.51228173  0.12836340  0.37621569     0.09700
C2696       C  0.49040680  0.14083761  0.41603041     0.35600
C2697       C  0.43903810  0.11583330  0.34151252     0.39100
C2698       C  0.52389452  0.14781235  0.37176079    -0.04500
C2699       C  0.54704500  0.14795228  0.37205093     0.02700
C2700       C  0.55898574  0.12833863  0.37664600    -0.04100
C2701       C  0.54692934  0.10872447  0.38092276    -0.00300
C2702       C  0.52377677  0.10882918  0.38053841    -0.02900
C2703       C  0.51184748  0.16777261  0.36682371     0.36400
C2704       C  0.55795248  0.08836793  0.38652022     0.40000
C2705       C  0.55816624  0.16858555  0.36768380     0.39100
C2706       C  0.51159486  0.08876781  0.38478131     0.36000
C2707       C  0.48588695  0.11708778  0.33850688     0.36700
C2708       C  0.44353758  0.14135548  0.41862301     0.40000
N2709       N  0.56682178  0.18518325  0.36436253    -0.38100
N2710       N  0.50221704  0.18365001  0.36284000    -0.39700
N2711       N  0.56657504  0.07207178  0.39110954    -0.37400
N2712       N  0.50181372  0.07280672  0.38806700    -0.39800
N2713       N  0.50094132  0.14559352  0.43110023    -0.39600
N2714       N  0.43498585  0.14656605  0.43474047    -0.37200
N2715       N  0.42867434  0.11079445  0.32641369    -0.38300
N2716       N  0.49450002  0.11281022  0.32214981    -0.39900
C2717       C  0.60587735  0.12377467  0.47735884    -0.04900
C2718       C  0.62530700  0.12831012  0.48910400     0.09300
C2719       C  0.64480644  0.13331410  0.47765981    -0.02300
C2720       C  0.64484580  0.13390137  0.45453248    -0.00500
C2721       C  0.62550182  0.12899585  0.44279678    -0.04100
C2722       C  0.60603100  0.12385852  0.45423149     0.02900
C2723       C  0.62514683  0.12817537  0.51362614     0.09700
C2724       C  0.66481265  0.13778251  0.48975041     0.35600
C2725       C  0.58604593  0.11906972  0.44221248     0.39100
C2726       C  0.62816115  0.10840800  0.52517123    -0.04500
C2727       C  0.62834346  0.10826363  0.54833915     0.02700
C2728       C  0.62502245  0.12807047  0.56036139    -0.04100
C2729       C  0.62182349  0.14793255  0.54835089    -0.00300
C2730       C  0.62199013  0.14786637  0.52519454    -0.02900
C2731       C  0.63105174  0.08810917  0.51304397     0.36400
C2732       C  0.61813533  0.16868985  0.55940764     0.40000
C2733       C  0.63236749  0.08753860  0.55940336     0.39100
C2734       C  0.61873497  0.16814646  0.51307308     0.36000
C2735       C  0.58569022  0.11932775  0.48914498     0.36700
C2736       C  0.66482192  0.13932804  0.44277724     0.40000
N2737       N  0.63559634  0.07091429  0.56804034    -0.38100
N2738       N  0.63325128  0.07193987  0.50334582    -0.39700
N2739       N  0.61523746  0.18535715  0.56802752    -0.37400
N2740       N  0.61615457  0.18425938  0.50333110    -0.39800
N2741       N  0.68075794  0.14130522  0.49944813    -0.39600
N2742       N  0.68072312  0.14372906  0.43337859    -0.37200
N2743       N  0.57003220  0.11526812  0.43273967    -0.38300
N2744       N  0.56959013  0.11588943  0.49859998    -0.39900
C2745       C  0.13801080  0.60786897  0.76826524    -0.04900
C2746       C  0.12386899  0.62124406  0.75575404     0.09300
C2747       C  0.10927329  0.63562037  0.76642426    -0.02300
C2748       C  0.10868662  0.63655813  0.78954078    -0.00500
C2749       C  0.12292035  0.62325263  0.80221852    -0.04100
C2750       C  0.13767315  0.60893957  0.79139562     0.02900
C2751       C  0.12432737  0.62024406  0.73122702     0.09700
C2752       C  0.09478959  0.64942151  0.75350039     0.35600
C2753       C  0.15307711  0.59581195  0.80395284     0.39100
C2754       C  0.10892497  0.60726337  0.71986379    -0.04500
C2755       C  0.10914372  0.60648341  0.69672470     0.02700
C2756       C  0.12482170  0.61876812  0.68468594    -0.04100
C2757       C  0.14017484  0.63192975  0.69624785    -0.00300
C2758       C  0.13989767  0.63260265  0.71939880    -0.02900
C2759       C  0.09277698  0.59472317  0.73209472     0.36400
C2760       C  0.15575484  0.64555380  0.68444279     0.40000
C2761       C  0.09344681  0.59256538  0.68550122     0.39100
C2762       C  0.15540026  0.64633527  0.73116858     0.36000
C2763       C  0.15291730  0.59297860  0.75724262     0.36700
C2764       C  0.09281290  0.65071258  0.80013011     0.40000
N2765       N  0.08077941  0.58142855  0.67677994    -0.38100
N2766       N  0.07987007  0.58479356  0.74188042    -0.39700
N2767       N  0.16818978  0.65646191  0.67508739    -0.37400
N2768       N  0.16769885  0.65727417  0.74065461    -0.39800
N2769       N  0.08325665  0.66039412  0.74313575    -0.39600
N2770       N  0.08002300  0.66204944  0.80833268    -0.37200
N2771       N  0.16539808  0.58538563  0.81397276    -0.38300
N2772       N  0.16477964  0.58110364  0.74840762    -0.39900
C2773       C  0.11445904  0.71775087  0.64181492    -0.04900
C2774       C  0.12647687  0.73108585  0.62719611     0.09300
C2775       C  0.13909332  0.72123518  0.61048142    -0.02300
C2776       C  0.13952135  0.69814522  0.60823495    -0.00500
C2777       C  0.12716356  0.68476085  0.62262235    -0.04100
C2778       C  0.11483947  0.69469803  0.63961103     0.02900
C2779       C  0.12561855  0.75559047  0.62925712     0.09700
C2780       C  0.15133944  0.73498266  0.59538285     0.35600
C2781       C  0.10307751  0.68118894  0.65534191     0.39100
C2782       C  0.14225594  0.76696555  0.64067089    -0.04500
C2783       C  0.14138536  0.79005026  0.64264772     0.02700
C2784       C  0.12421911  0.80199804  0.63254628    -0.04100
C2785       C  0.10746771  0.79052023  0.62131140    -0.00300
C2786       C  0.10805303  0.76740216  0.61989135    -0.02900
C2787       C  0.16038180  0.75485100  0.65020388     0.36400
C2788       C  0.08915353  0.80238327  0.61185526     0.40000
C2789       C  0.15849455  0.80149261  0.65463864     0.39100
C2790       C  0.09049807  0.75567835  0.60887153     0.36000
C2791       C  0.10164757  0.72783447  0.65912972     0.36700
C2792       C  0.15210495  0.68824842  0.59066485     0.40000
N2793       N  0.17213079  0.81059469  0.66423877    -0.38100
N2794       N  0.17489145  0.74515094  0.65768385    -0.39700
N2795       N  0.07441338  0.81167673  0.60433414    -0.37400
N2796       N  0.07643635  0.74629183  0.60021119    -0.39800
N2797       N  0.16105933  0.74605465  0.58338291    -0.39600
N2798       N  0.16215325  0.68034865  0.57664691    -0.37200
N2799       N  0.09376209  0.67041248  0.66792282    -0.38300
N2800       N  0.09139114  0.73590985  0.67289345    -0.39900
C2801       C  0.14050678  0.61736546  0.26503481    -0.04900
C2802       C  0.12652475  0.63299434  0.25519145     0.09300
C2803       C  0.11301832  0.64617923  0.26850113    -0.02300
C2804       C  0.11342878  0.64375267  0.29154458    -0.00500
C2805       C  0.12705956  0.62771045  0.30150818    -0.04100
C2806       C  0.14059426  0.61451380  0.28805237     0.02900
C2807       C  0.12580255  0.63518734  0.23068947     0.09700
C2808       C  0.09878637  0.66237701  0.25840549     0.35600
C2809       C  0.15400279  0.59738731  0.29771989     0.39100
C2810       C  0.10976153  0.62376565  0.21850980    -0.04500
C2811       C  0.11011925  0.62431963  0.19536408     0.02700
C2812       C  0.12667461  0.63619160  0.18418012    -0.04100
C2813       C  0.14206557  0.64854380  0.19644824    -0.00300
C2814       C  0.14151883  0.64811577  0.21962249    -0.02900
C2815       C  0.09282356  0.61148300  0.22987504     0.36400
C2816       C  0.15897145  0.66108919  0.18531641     0.40000
C2817       C  0.09297495  0.61322182  0.18308605     0.39100
C2818       C  0.15710079  0.66100009  0.23218540     0.36000
C2819       C  0.15480011  0.60418433  0.25134561     0.36700
C2820       C  0.10034680  0.65839994  0.30497471     0.40000
N2821       N  0.07924597  0.60450178  0.17326723    -0.38100
N2822       N  0.07924313  0.60179927  0.23897119    -0.39700
N2823       N  0.17245254  0.67110434  0.17642555    -0.37400
N2824       N  0.16941203  0.67136890  0.24227171    -0.39800
N2825       N  0.08740855  0.67526034  0.25032504    -0.39600
N2826       N  0.08996849  0.67011498  0.31569845    -0.37200
N2827       N  0.16462715  0.58363145  0.30538195    -0.38300
N2828       N  0.16626179  0.59383516  0.24032971    -0.39900
C2829       C  0.14203343  0.63522032  0.46953919    -0.04900
C2830       C  0.12641344  0.62234080  0.48078370     0.09300
C2831       C  0.11103000  0.60992992  0.46875049    -0.02300
C2832       C  0.11138858  0.61014916  0.44558247    -0.00500
C2833       C  0.12709622  0.62300565  0.43417214    -0.04100
C2834       C  0.14234290  0.63566050  0.44635550     0.02900
C2835       C  0.12624089  0.62169647  0.50539084     0.09700
C2836       C  0.09478517  0.59691474  0.48032345     0.35600
C2837       C  0.15784078  0.64985115  0.43513436     0.39100
C2838       C  0.11377162  0.63705161  0.51737171    -0.04500
C2839       C  0.11386176  0.63661866  0.54055402     0.02700
C2840       C  0.12582838  0.62028546  0.55195978    -0.04100
C2841       C  0.13787804  0.60458523  0.53984537    -0.00300
C2842       C  0.13835762  0.60553063  0.51669246    -0.02900
C2843       C  0.10067904  0.65317550  0.50575011     0.36400
C2844       C  0.14895871  0.58676626  0.55105828     0.40000
C2845       C  0.10223359  0.65348325  0.55263913     0.39100
C2846       C  0.15120054  0.58974197  0.50439038     0.36000
C2847       C  0.15771374  0.64815641  0.48193148     0.36700
C2848       C  0.09590464  0.59658277  0.43359200     0.40000
N2849       N  0.09307988  0.66699605  0.56231488    -0.38100
N2850       N  0.09012008  0.66590781  0.49641295    -0.39700
N2851       N  0.15767029  0.57234038  0.55980796    -0.37400
N2852       N  0.16147392  0.57720774  0.49452954    -0.39800
N2853       N  0.08181350  0.58659496  0.48960857    -0.39600
N2854       N  0.08354159  0.58577297  0.42403820    -0.37200
N2855       N  0.17015167  0.66122165  0.42617160    -0.38300
N2856       N  0.17019370  0.65847241  0.49186464    -0.39900
C2857       C  0.10750459  0.26641744  0.64494830    -0.04900
C2858       C  0.11792163  0.25542065  0.62745992     0.09300
C2859       C  0.12702031  0.26763940  0.61002958    -0.02300
C2860       C  0.12624697  0.29077917  0.61033549    -0.00500
C2861       C  0.11586033  0.30185860  0.62785617    -0.04100
C2862       C  0.10632221  0.28957559  0.64508309     0.02900
C2863       C  0.11973305  0.23091288  0.62755466     0.09700
C2864       C  0.13710187  0.25629935  0.59172107     0.35600
C2865       C  0.09604011  0.30077031  0.66337313     0.39100
C2866       C  0.10313365  0.21793702  0.61795458    -0.04500
C2867       C  0.10512130  0.19485466  0.61760460     0.02700
C2868       C  0.12329155  0.18456838  0.62774749    -0.04100
C2869       C  0.13998215  0.19761218  0.63719191    -0.00300
C2870       C  0.13833100  0.22071680  0.63683307    -0.02900
C2871       C  0.08388647  0.22840278  0.60867588     0.36400
C2872       C  0.15929358  0.18732156  0.64652125     0.40000
C2873       C  0.08826438  0.18171410  0.60708418     0.39100
C2874       C  0.15585607  0.23408794  0.64583924     0.36000
C2875       C  0.09819527  0.25382835  0.66288445     0.36700
C2876       C  0.13585978  0.30315203  0.59238885     0.40000
N2877       N  0.07490103  0.17125303  0.59854092    -0.38100
N2878       N  0.06847705  0.23678963  0.60141508    -0.39700
N2879       N  0.17481984  0.17924846  0.65387344    -0.37400
N2880       N  0.16987214  0.24479558  0.65289724    -0.39800
N2881       N  0.14503600  0.24718603  0.57709745    -0.39600
N2882       N  0.14357643  0.31298091  0.57807379    -0.37200
N2883       N  0.08788669  0.30971125  0.67798633    -0.38300
N2884       N  0.09079846  0.24372364  0.67717496    -0.39900
C2885       C  0.10199508  0.35993305  0.77827619    -0.04900
C2886       C  0.11673119  0.37203104  0.76514411     0.09300
C2887       C  0.13271308  0.38541645  0.77522754    -0.02300
C2888       C  0.13397859  0.38671391  0.79833341    -0.00500
C2889       C  0.11914375  0.37472897  0.81157789    -0.04100
C2890       C  0.10308899  0.36134769  0.80138141     0.02900
C2891       C  0.11547169  0.37068331  0.74061182     0.09700
C2892       C  0.14804007  0.39767063  0.76172744     0.35600
C2893       C  0.08718405  0.34953997  0.81462075     0.39100
C2894       C  0.10368798  0.38663217  0.72863951    -0.04500
C2895       C  0.10286796  0.38565564  0.70550096     0.02700
C2896       C  0.11426706  0.36895302  0.69413316    -0.04100
C2897       C  0.12583100  0.35282387  0.70619752    -0.00300
C2898       C  0.12624311  0.35359083  0.72934824    -0.02900
C2899       C  0.09254068  0.40415669  0.74021685     0.36400
C2900       C  0.13680621  0.33503505  0.69483434     0.40000
C2901       C  0.09080100  0.40225107  0.69340901     0.39100
C2902       C  0.13766897  0.33672703  0.74166968     0.36000
C2903       C  0.08568692  0.34602024  0.76791845     0.36700
C2904       C  0.15118461  0.39969867  0.80835484     0.40000
N2905       N  0.08113114  0.41545533  0.68375949    -0.38100
N2906       N  0.08371848  0.41814746  0.74951031    -0.39700
N2907       N  0.14551962  0.32083265  0.68575549    -0.37400
N2908       N  0.14665288  0.32321642  0.75155150    -0.39800
N2909       N  0.16024131  0.40743162  0.75091980    -0.39600
N2910       N  0.16511983  0.41004380  0.81604380    -0.37200
N2911       N  0.07447548  0.34017958  0.82519865    -0.38300
N2912       N  0.07275579  0.33487240  0.75958724    -0.39900
C2913       C  0.10796034  0.46834313  0.60594984    -0.04900
C2914       C  0.11833152  0.48054660  0.62270479     0.09300
C2915       C  0.12664790  0.46955863  0.64134170    -0.02300
C2916       C  0.12523034  0.44646873  0.64290247    -0.00500
C2917       C  0.11488632  0.43423375  0.62612040    -0.04100
C2918       C  0.10578987  0.44533097  0.60787527     0.02900
C2919       C  0.11974532  0.50511211  0.62111149     0.09700
C2920       C  0.13640357  0.48210739  0.65905526     0.35600
C2921       C  0.09459293  0.43306148  0.59081596     0.39100
C2922       C  0.10118066  0.51800241  0.62570810    -0.04500
C2923       C  0.10223529  0.54112244  0.62422748     0.02700
C2924       C  0.12227789  0.55187384  0.61864929    -0.04100
C2925       C  0.14098303  0.53861899  0.61416718    -0.00300
C2926       C  0.13955800  0.51544316  0.61514653    -0.02900
C2927       C  0.08089369  0.50731646  0.63224358     0.36400
C2928       C  0.16185160  0.54847180  0.60829229     0.40000
C2929       C  0.08243008  0.55349181  0.62875799     0.39100
C2930       C  0.15850512  0.50207200  0.60982270     0.36000
C2931       C  0.09982842  0.47951105  0.58655599     0.36700
C2932       C  0.13382195  0.43534349  0.66213827     0.40000
N2933       N  0.06644000  0.56311762  0.63220204    -0.38100
N2934       N  0.06476823  0.49873719  0.63744991    -0.39700
N2935       N  0.17862432  0.55612578  0.60371324    -0.37400
N2936       N  0.17358446  0.49137895  0.60554197    -0.39800
N2937       N  0.14411634  0.49216396  0.67319701    -0.39600
N2938       N  0.14062823  0.42644049  0.67748400    -0.37200
N2939       N  0.08555335  0.42330517  0.57725562    -0.38300
N2940       N  0.09343755  0.48847176  0.57106860    -0.39900
C2941       C  0.11314566  0.39499480  0.27667533    -0.04900
C2942       C  0.12339913  0.37799587  0.26479159     0.09300
C2943       C  0.13226185  0.35981957  0.27609412    -0.02300
C2944       C  0.13082377  0.35856149  0.29915636    -0.00500
C2945       C  0.12048134  0.37550517  0.31109426    -0.04100
C2946       C  0.11154833  0.39369681  0.29976333     0.02900
C2947       C  0.12443716  0.37876192  0.24025245     0.09700
C2948       C  0.14290426  0.34241191  0.26387617     0.35600
C2949       C  0.10124864  0.41137557  0.31190873     0.39100
C2950       C  0.14200949  0.38942829  0.22959313    -0.04500
C2951       C  0.14359772  0.38899427  0.20647864     0.02700
C2952       C  0.12771839  0.37764050  0.19388084    -0.04100
C2953       C  0.11027630  0.36672873  0.20466733    -0.00300
C2954       C  0.10842316  0.36770261  0.22771814    -0.02900
C2955       C  0.15850992  0.40073979  0.24249540     0.36400
C2956       C  0.09392644  0.35481956  0.19208919     0.40000
C2957       C  0.16210660  0.39945416  0.19574064     0.39100
C2958       C  0.08983426  0.35759086  0.23863102     0.36000
C2959       C  0.10444820  0.41389872  0.26511279     0.36700
C2960       C  0.13937016  0.33945816  0.31053853     0.40000
N2961       N  0.17691512  0.40769967  0.18715887    -0.38100
N2962       N  0.17163668  0.40977989  0.25283049    -0.39700
N2963       N  0.08090415  0.34526624  0.18208410    -0.37400
N2964       N  0.07493889  0.34970770  0.24739086    -0.39800
N2965       N  0.15138657  0.32859785  0.25402037    -0.39600
N2966       N  0.14610816  0.32418451  0.31961461    -0.37200
N2967       N  0.09302878  0.42543706  0.32164607    -0.38300
N2968       N  0.09761063  0.42903860  0.25589054    -0.39900
C2969       C  0.10552470  0.47605807  0.38745080    -0.04900
C2970       C  0.12197786  0.48685858  0.37527195     0.09300
C2971       C  0.13789693  0.47438806  0.36410365    -0.02300
C2972       C  0.13683855  0.45123441  0.36425251    -0.00500
C2973       C  0.12054841  0.44021827  0.37673604    -0.04100
C2974       C  0.10496855  0.45287818  0.38848412     0.02900
C2975       C  0.12229704  0.51143618  0.37370401     0.09700
C2976       C  0.15554951  0.48549409  0.35260540     0.35600
C2977       C  0.08859717  0.44222044  0.40210136     0.39100
C2978       C  0.13213516  0.52408895  0.39041163    -0.04500
C2979       C  0.13295808  0.54718570  0.38858290     0.02700
C2980       C  0.12398114  0.55779925  0.36997789    -0.04100
C2981       C  0.11389321  0.54514366  0.35339095    -0.00300
C2982       C  0.11307561  0.52203278  0.35525171    -0.02900
C2983       C  0.14146336  0.51327539  0.40946242     0.36400
C2984       C  0.10497414  0.55585230  0.33408655     0.40000
C2985       C  0.14251571  0.56008101  0.40618050     0.39100
C2986       C  0.10282857  0.50904312  0.33814353     0.36000
C2987       C  0.08916233  0.48890261  0.39896825     0.36700
C2988       C  0.15188521  0.43892148  0.35054565     0.40000
N2989       N  0.15007806  0.57035784  0.42024834    -0.38100
N2990       N  0.14886984  0.50463028  0.42467369    -0.39700
N2991       N  0.09792131  0.56441898  0.31866269    -0.37400
N2992       N  0.09469542  0.49857081  0.32454796    -0.39800
N2993       N  0.16973652  0.49440126  0.34364690    -0.39600
N2994       N  0.16375377  0.42914014  0.33943900    -0.37200
N2995       N  0.07552563  0.43377637  0.41299841    -0.38300
N2996       N  0.07613156  0.49919019  0.40814195    -0.39900
C2997       C  0.10667742  0.35015658  0.52668046    -0.04900
C2998       C  0.11678509  0.36764179  0.51525972     0.09300
C2999       C  0.12654144  0.38496911  0.52718125    -0.02300
C3000       C  0.12626491  0.38480425  0.55031945    -0.00500
C3001       C  0.11575065  0.36755896  0.56176415    -0.04100
C3002       C  0.10576924  0.35032309  0.54983841     0.02900
C3003       C  0.11688336  0.36813912  0.49062848     0.09700
C3004       C  0.13676307  0.40309275  0.51556398     0.35600
C3005       C  0.09498409  0.33247570  0.56137552     0.39100
C3006       C  0.09759887  0.37338416  0.47900496    -0.04500
C3007       C  0.09782793  0.37498394  0.45586760     0.02700
C3008       C  0.11758119  0.37147613  0.44390156    -0.04100
C3009       C  0.13701349  0.36634393  0.45591998    -0.00300
C3010       C  0.13647305  0.36437608  0.47901168    -0.02900
C3011       C  0.07745230  0.37744043  0.49101676     0.36400
C3012       C  0.15785812  0.36303371  0.44492449     0.40000
C3013       C  0.07760194  0.38086803  0.44475893     0.39100
C3014       C  0.15621060  0.35841195  0.49097313     0.36000
C3015       C  0.09753670  0.33181485  0.51456104     0.36700
C3016       C  0.13619350  0.40283225  0.56231599     0.40000
N3017       N  0.06137262  0.38553878  0.43607200    -0.38100
N3018       N  0.06140086  0.38056850  0.50063969    -0.39700
N3019       N  0.17458839  0.36042504  0.43634263    -0.37400
N3020       N  0.17193602  0.35370689  0.50052131    -0.39800
N3021       N  0.14499445  0.41746425  0.50623744    -0.39600
N3022       N  0.14409919  0.41723567  0.57185078    -0.37200
N3023       N  0.08634585  0.31825282  0.57056839    -0.38300
N3024       N  0.09030863  0.31715838  0.50487817    -0.39900
C3025       C  0.77715481  0.87551455  0.39464662    -0.04900
C3026       C  0.76698157  0.88511070  0.37621719     0.09300
C3027       C  0.78001963  0.89384756  0.35924558    -0.02300
C3028       C  0.80312933  0.89251756  0.36033560    -0.00500
C3029       C  0.81358928  0.88276583  0.37879616    -0.04100
C3030       C  0.80028596  0.87446379  0.39607277     0.02900
C3031       C  0.74244700  0.88501670  0.37408023     0.09700
C3032       C  0.76950624  0.90427273  0.34057543     0.35600
C3033       C  0.81014928  0.86406327  0.41509474     0.39100
C3034       C  0.72963923  0.90115229  0.38456997    -0.04500
C3035       C  0.70651180  0.90072022  0.38275367     0.02700
C3036       C  0.69599532  0.88458379  0.36964698    -0.04100
C3037       C  0.70906198  0.86877392  0.35870944    -0.00300
C3038       C  0.73206882  0.86872658  0.36134520    -0.02900
C3039       C  0.74034241  0.91816624  0.39732731     0.36400
C3040       C  0.69904839  0.85283018  0.34415284     0.40000
C3041       C  0.69362364  0.91629587  0.39528039     0.39100
C3042       C  0.74517538  0.85167969  0.35116475     0.36000
C3043       C  0.76367879  0.86628297  0.41197738     0.36700
C3044       C  0.81592916  0.90149593  0.34236663     0.40000
N3045       N  0.68335353  0.92863392  0.40539545    -0.38100
N3046       N  0.74891558  0.93176819  0.40744161    -0.39700
N3047       N  0.69123108  0.84011096  0.33242220    -0.37400
N3048       N  0.75569345  0.83804366  0.34320379    -0.39800
N3049       N  0.76106485  0.91262230  0.32574544    -0.39600
N3050       N  0.82603528  0.90852927  0.32789891    -0.37200
N3051       N  0.81793886  0.85580633  0.43033240    -0.38300
N3052       N  0.75287460  0.85890989  0.42575057    -0.39900
C3053       C  0.89655991  0.77803678  0.38683212    -0.04900
C3054       C  0.87717312  0.76675335  0.38081604     0.09300
C3055       C  0.85788692  0.77886448  0.37634959    -0.02300
C3056       C  0.85826548  0.80202576  0.37694335    -0.00500
C3057       C  0.87760118  0.81319327  0.38307215    -0.04100
C3058       C  0.89657740  0.80114088  0.38855529     0.02900
C3059       C  0.87709230  0.74215301  0.37901684     0.09700
C3060       C  0.83762043  0.76746669  0.37121538     0.35600
C3061       C  0.91622112  0.81254933  0.39571369     0.39100
C3062       C  0.87931968  0.72896605  0.39800477    -0.04500
C3063       C  0.87977173  0.70588002  0.39619807     0.02700
C3064       C  0.87662461  0.69579557  0.37561094    -0.04100
C3065       C  0.87392003  0.70885758  0.35669227    -0.00300
C3066       C  0.87480492  0.73195618  0.35828838    -0.02900
C3067       C  0.88085216  0.73914694  0.41945417     0.36400
C3068       C  0.87033112  0.69848950  0.33556876     0.40000
C3069       C  0.88351024  0.69248469  0.41554482     0.39100
C3070       C  0.87367969  0.74524158  0.33855304     0.36000
C3071       C  0.91665009  0.76590365  0.39075103     0.36700
C3072       C  0.83871283  0.81441821  0.37137758     0.40000
N3073       N  0.88674725  0.68188276  0.43097688    -0.38100
N3074       N  0.88208598  0.74727455  0.43656474    -0.39700
N3075       N  0.86731011  0.69021662  0.31874895    -0.37400
N3076       N  0.87281236  0.75585965  0.32281881    -0.39800
N3077       N  0.82147497  0.75833895  0.36709601    -0.39600
N3078       N  0.82315926  0.82433445  0.36688196    -0.37200
N3079       N  0.93184404  0.82159336  0.40163669    -0.38300
N3080       N  0.93266385  0.75620535  0.39388046    -0.39900
C3081       C  0.87096174  0.23085412  0.39235620    -0.04900
C3082       C  0.87771079  0.24254485  0.37361860     0.09300
C3083       C  0.88511097  0.23106028  0.35501146    -0.02300
C3084       C  0.88573406  0.20788274  0.35506327    -0.00500
C3085       C  0.87806733  0.19583244  0.37355553    -0.04100
C3086       C  0.87080212  0.20769906  0.39231951     0.02900
C3087       C  0.87717351  0.26711094  0.37365103     0.09700
C3088       C  0.89212310  0.24323063  0.33575822     0.35600
C3089       C  0.86285467  0.19645848  0.41175511     0.39100
C3090       C  0.89657994  0.27913209  0.37709475    -0.04500
C3091       C  0.89610522  0.30228816  0.37768606     0.02700
C3092       C  0.87594378  0.31383873  0.37492001    -0.04100
C3093       C  0.85642872  0.30139722  0.37141715    -0.00300
C3094       C  0.85715440  0.27824178  0.37081823    -0.02900
C3095       C  0.91711646  0.26750136  0.38033503     0.36400
C3096       C  0.83537874  0.31202978  0.36815592     0.40000
C3097       C  0.91661240  0.31382127  0.38144932     0.39100
C3098       C  0.83717971  0.26569494  0.36734526     0.36000
C3099       C  0.86426810  0.24282050  0.41183006     0.36700
C3100       C  0.89509484  0.19674489  0.33624100     0.40000
N3101       N  0.93309162  0.32282065  0.38438334    -0.38100
N3102       N  0.93346004  0.25819352  0.38288186    -0.39700
N3103       N  0.81848571  0.32030520  0.36558980    -0.37400
N3104       N  0.82127202  0.25565259  0.36467983    -0.39800
N3105       N  0.89770829  0.25299635  0.32044420    -0.39600
N3106       N  0.90269865  0.18799061  0.32122264    -0.37200
N3107       N  0.85659842  0.18773890  0.42743329    -0.38300
N3108       N  0.85899805  0.25241499  0.42732614    -0.39900
C3109       C  0.77511037  0.13946913  0.39169474    -0.04900
C3110       C  0.76316032  0.13221355  0.37329195     0.09300
C3111       C  0.77446750  0.12551052  0.35430312    -0.02300
C3112       C  0.79764683  0.12561142  0.35379978    -0.00500
C3113       C  0.80992894  0.13174345  0.37272722    -0.04100
C3114       C  0.79827939  0.13911609  0.39155921     0.02900
C3115       C  0.73856565  0.13140442  0.37402066     0.09700
C3116       C  0.76210924  0.11823460  0.33526943     0.35600
C3117       C  0.80984358  0.14697834  0.41082504     0.39100
C3118       C  0.72602024  0.14723850  0.36272406    -0.04500
C3119       C  0.70289377  0.14621431  0.36309699     0.02700
C3120       C  0.69200570  0.12971779  0.37546283    -0.04100
C3121       C  0.70470853  0.11399558  0.38697622    -0.00300
C3122       C  0.72784096  0.11470721  0.38599932    -0.02900
C3123       C  0.73697812  0.16468285  0.35073499     0.36400
C3124       C  0.69414003  0.09744637  0.40047343     0.40000
C3125       C  0.69043932  0.16177213  0.35002521     0.39100
C3126       C  0.74072522  0.09819746  0.39734081     0.36000
C3127       C  0.76341731  0.14747502  0.41082025     0.36700
C3128       C  0.80850218  0.11930126  0.33359739     0.40000
N3129       N  0.68051608  0.17413345  0.33954949    -0.38100
N3130       N  0.74570700  0.17858962  0.34115945    -0.39700
N3131       N  0.68574741  0.08426797  0.41129937    -0.37400
N3132       N  0.75107300  0.08508236  0.40637931    -0.39800
N3133       N  0.75218603  0.11250223  0.32012401    -0.39600
N3134       N  0.81694133  0.11449937  0.31729031    -0.37200
N3135       N  0.81885567  0.15321827  0.42633108    -0.38300
N3136       N  0.75405049  0.15385390  0.42603599    -0.39900
C3137       C  0.89446772  0.02922524  0.38771025    -0.04900
C3138       C  0.87963517  0.01647507  0.37533860     0.09300
C3139       C  0.86391150  0.02696042  0.36194844    -0.02300
C3140       C  0.86282400  0.05011029  0.36113629    -0.00500
C3141       C  0.87752079  0.06294473  0.37370604    -0.04100
C3142       C  0.89349316  0.05235207  0.38686366     0.02900
C3143       C  0.88033890  0.99192664  0.37673714     0.09700
C3144       C  0.84873031  0.01383212  0.34914490     0.35600
C3145       C  0.90940834  0.06521018  0.39908000     0.39100
C3146       C  0.86602686  0.98069025  0.39105576    -0.04500
C3147       C  0.86651925  0.95755777  0.39234204     0.02700
C3148       C  0.88156833  0.94545817  0.37946413    -0.04100
C3149       C  0.89607513  0.95681591  0.36529432    -0.00300
C3150       C  0.89534942  0.97994676  0.36386410    -0.02900
C3151       C  0.85067238  0.99302682  0.40437632     0.36400
C3152       C  0.91220125  0.94479126  0.35260896     0.40000
C3153       C  0.85085386  0.94622969  0.40626578     0.39100
C3154       C  0.90998561  0.99150724  0.34906188     0.36000
C3155       C  0.91068988  0.01845981  0.40141538     0.36700
C3156       C  0.84600607  0.06063342  0.34800402     0.40000
N3157       N  0.83831490  0.93718600  0.41730835    -0.38100
N3158       N  0.83843590  0.00292533  0.41496415    -0.39700
N3159       N  0.92509419  0.93518654  0.34253692    -0.37400
N3160       N  0.92162202  0.00078414  0.33725440    -0.39800
N3161       N  0.83662436  0.00330542  0.33897129    -0.39600
N3162       N  0.83250315  0.06892434  0.33754400    -0.37200
N3163       N  0.92213088  0.07547046  0.40876918    -0.38300
N3164       N  0.92362077  0.00983123  0.41232592    -0.39900
C3165       C  0.11492861  0.77266864  0.36152765    -0.04900
C3166       C  0.13259030  0.76106914  0.37100075     0.09300
C3167       C  0.14970575  0.77274472  0.38136280    -0.02300
C3168       C  0.14896740  0.79589222  0.38261650    -0.00500
C3169       C  0.13114257  0.80752379  0.37336200    -0.04100
C3170       C  0.11422258  0.79580519  0.36262550     0.02900
C3171       C  0.13270069  0.73646018  0.37065970     0.09700
C3172       C  0.16810382  0.76086675  0.39066051     0.35600
C3173       C  0.09572149  0.80749785  0.35325271     0.39100
C3174       C  0.14383669  0.72499531  0.35392622    -0.04500
C3175       C  0.14306485  0.70181526  0.35317876     0.02700
C3176       C  0.13108213  0.68998515  0.36917578    -0.04100
C3177       C  0.12034762  0.70149866  0.38617459    -0.00300
C3178       C  0.12116775  0.72463236  0.38689852    -0.02900
C3179       C  0.15592509  0.73713092  0.33739176     0.36400
C3180       C  0.10903567  0.68949182  0.40336954     0.40000
C3181       C  0.15400071  0.69020441  0.33553380     0.39100
C3182       C  0.11021913  0.73635700  0.40444143     0.36000
C3183       C  0.09740713  0.76068777  0.35073683     0.36700
C3184       C  0.16692152  0.80777483  0.39280916     0.40000
N3185       N  0.16270202  0.68092464  0.32145503    -0.38100
N3186       N  0.16559963  0.74685812  0.32424833    -0.39700
N3187       N  0.10010561  0.67983655  0.41708219    -0.37400
N3188       N  0.10152502  0.74575953  0.41843541    -0.39800
N3189       N  0.18280796  0.75134513  0.39798837    -0.39600
N3190       N  0.18124820  0.81728895  0.40088413    -0.37200
N3191       N  0.08097022  0.81684916  0.34579500    -0.38300
N3192       N  0.08345912  0.75105957  0.34215755    -0.39900
C3193       C  0.23013651  0.85748460  0.35874334    -0.04900
C3194       C  0.24256071  0.87119573  0.37265721     0.09300
C3195       C  0.23178453  0.88622815  0.38652465    -0.02300
C3196       C  0.20865931  0.88725672  0.38683239    -0.00500
C3197       C  0.19610383  0.87347275  0.37293699    -0.04100
C3198       C  0.20701839  0.85876059  0.35867573     0.02900
C3199       C  0.26709380  0.86994075  0.37255433     0.09700
C3200       C  0.24459687  0.90078003  0.40035418     0.35600
C3201       C  0.19452919  0.84437207  0.34438392     0.39100
C3202       C  0.27916627  0.88067700  0.35596354    -0.04500
C3203       C  0.30227522  0.87959024  0.35584310     0.02700
C3204       C  0.31349763  0.86789069  0.37245621    -0.04100
C3205       C  0.30138019  0.85707933  0.38904443    -0.00300
C3206       C  0.27824407  0.85809650  0.38906088    -0.02900
C3207       C  0.26773145  0.89301844  0.33911317     0.36400
C3208       C  0.31270000  0.84562127  0.40659734     0.40000
C3209       C  0.31447917  0.89005206  0.33826127     0.39100
C3210       C  0.26583914  0.84711961  0.40616534     0.36000
C3211       C  0.24122994  0.84180567  0.34472169     0.36700
C3212       C  0.19786990  0.90296492  0.40107495     0.40000
N3213       N  0.32424383  0.89832291  0.32421836    -0.38100
N3214       N  0.25854969  0.90285669  0.32570548    -0.39700
N3215       N  0.32171981  0.83656368  0.42065491    -0.37400
N3216       N  0.25589594  0.83843071  0.41982418    -0.39800
N3217       N  0.25487343  0.91238375  0.41133372    -0.39600
N3218       N  0.18926371  0.91546672  0.41246224    -0.37200
N3219       N  0.18457597  0.83295468  0.33291983    -0.38300
N3220       N  0.25013821  0.82929204  0.33358835    -0.39900
C3221       C  0.02969448  0.85679901  0.39274766    -0.04900
C3222       C  0.01750526  0.87384396  0.38286935     0.09300
C3223       C  0.02854990  0.89075128  0.37148938    -0.02300
C3224       C  0.05165269  0.89066024  0.36998996    -0.00500
C3225       C  0.06388174  0.87346814  0.37964669    -0.04100
C3226       C  0.05279713  0.85652163  0.39103311     0.02900
C3227       C  0.99292970  0.87376705  0.38384960     0.09700
C3228       C  0.01602899  0.90821444  0.36123988     0.35600
C3229       C  0.06510681  0.83836823  0.40032738     0.39100
C3230       C  0.98181981  0.88665405  0.39950255    -0.04500
C3231       C  0.95866607  0.88787804  0.39930502     0.02700
C3232       C  0.94636217  0.87559309  0.38383762    -0.04100
C3233       C  0.95763448  0.86194053  0.36877342    -0.00300
C3234       C  0.98077981  0.86141842  0.36852008    -0.02900
C3235       C  0.99433084  0.89884171  0.41567976     0.36400
C3236       C  0.94550748  0.84779074  0.35394109     0.40000
C3237       C  0.94768647  0.90259304  0.41441871     0.39100
C3238       C  0.99221075  0.84844881  0.35218731     0.36000
C3239       C  0.01840190  0.83953095  0.40464038     0.36700
C3240       C  0.06285794  0.90867240  0.35912924     0.40000
N3241       N  0.93896579  0.91442525  0.42641453    -0.38100
N3242       N  0.00436338  0.90848370  0.42860905    -0.39700
N3243       N  0.93584809  0.83636767  0.34223223    -0.37400
N3244       N  0.00140315  0.83823174  0.33911378    -0.39800
N3245       N  0.00594761  0.92209325  0.35308611    -0.39600
N3246       N  0.07181118  0.92308569  0.35055705    -0.37200
N3247       N  0.07497869  0.82387064  0.40762377    -0.38300
N3248       N  0.00938926  0.82576746  0.41415957    -0.39900
C3249       C  0.22608626  0.14545517  0.38792487    -0.04900
C3250       C  0.23866343  0.12777785  0.37981182     0.09300
C3251       C  0.22798553  0.10960576  0.37013661    -0.02300
C3252       C  0.20487519  0.10883280  0.36911764    -0.00500
C3253       C  0.19231247  0.12643824  0.37737480    -0.04100
C3254       C  0.20298434  0.14487317  0.38652478     0.02900
C3255       C  0.26320338  0.12830077  0.38128195     0.09700
C3256       C  0.24085527  0.09177682  0.36107046     0.35600
C3257       C  0.19019859  0.16357626  0.39380211     0.39100
C3258       C  0.27423935  0.11511500  0.39684936    -0.04500
C3259       C  0.29737723  0.11508221  0.39778450     0.02700
C3260       C  0.30963871  0.12824635  0.38313071    -0.04100
C3261       C  0.29855935  0.14156458  0.36766097    -0.00300
C3262       C  0.27544102  0.14164180  0.36681404    -0.02900
C3263       C  0.26171334  0.10167155  0.41199956     0.36400
C3264       C  0.31093925  0.15454519  0.35196447     0.40000
C3265       C  0.30853213  0.10198504  0.41426624     0.39100
C3266       C  0.26419566  0.15531979  0.35088528     0.36000
C3267       C  0.23696029  0.16427727  0.39764068     0.36700
C3268       C  0.19399758  0.08963746  0.36013275     0.40000
N3269       N  0.31746769  0.09159585  0.42742772    -0.38100
N3270       N  0.25168401  0.09090790  0.42402582    -0.39700
N3271       N  0.32084993  0.16482730  0.33942638    -0.37400
N3272       N  0.25520242  0.16634370  0.33829646    -0.39800
N3273       N  0.25118884  0.07760428  0.35383751    -0.39600
N3274       N  0.18529846  0.07429925  0.35305240    -0.37200
N3275       N  0.17997782  0.17853895  0.39943905    -0.38300
N3276       N  0.24567260  0.17933090  0.40528652    -0.39900
C3277       C  0.10371981  0.22334046  0.38819371    -0.04900
C3278       C  0.11824608  0.23648699  0.37588594     0.09300
C3279       C  0.13454203  0.22647708  0.36288125    -0.02300
C3280       C  0.13639020  0.20338704  0.36222617    -0.00500
C3281       C  0.12219594  0.19014450  0.37498453    -0.04100
C3282       C  0.10575936  0.20026879  0.38789922     0.02900
C3283       C  0.11678744  0.26099039  0.37691875     0.09700
C3284       C  0.14961697  0.24006966  0.35041667     0.35600
C3285       C  0.09046494  0.18696030  0.40042839     0.39100
C3286       C  0.12794625  0.27251684  0.39358217    -0.04500
C3287       C  0.12782539  0.29567091  0.39379904     0.02700
C3288       C  0.11679720  0.30749817  0.37712707    -0.04100
C3289       C  0.10510722  0.29587404  0.36077644    -0.00300
C3290       C  0.10488180  0.27268973  0.36087400    -0.02900
C3291       C  0.13947679  0.26046019  0.41058702     0.36400
C3292       C  0.09403945  0.30770338  0.34332052     0.40000
C3293       C  0.13843229  0.30722027  0.41168083     0.39100
C3294       C  0.09229554  0.26077084  0.34457138     0.36000
C3295       C  0.08657261  0.23362856  0.40105191     0.36700
C3296       C  0.15335953  0.19336756  0.34892009     0.40000
N3297       N  0.14682216  0.31618606  0.42615376    -0.38100
N3298       N  0.14859375  0.25081402  0.42417896    -0.39700
N3299       N  0.08531464  0.31715265  0.32933635    -0.37400
N3300       N  0.08211263  0.25118108  0.33172260    -0.39800
N3301       N  0.16162012  0.25101290  0.34055770    -0.39600
N3302       N  0.16687499  0.18540094  0.33825490    -0.37200
N3303       N  0.07830367  0.17631632  0.41042501    -0.38300
N3304       N  0.07284796  0.24184843  0.41124335    -0.39900
C3305       C  0.97673080  0.10870622  0.36322871    -0.04900
C3306       C  0.98907911  0.12556569  0.37325343     0.09300
C3307       C  0.97814508  0.14321411  0.38352183    -0.02300
C3308       C  0.95499974  0.14395504  0.38382389    -0.00500
C3309       C  0.94265866  0.12721080  0.37355945    -0.04100
C3310       C  0.95360549  0.10954912  0.36331809     0.02900
C3311       C  0.01364967  0.12462994  0.37311260     0.09700
C3312       C  0.99076625  0.16064147  0.39372155     0.35600
C3313       C  0.94106039  0.09183168  0.35350313     0.39100
C3314       C  0.02573740  0.13788663  0.35845314    -0.04500
C3315       C  0.04888705  0.13736710  0.35864112     0.02700
C3316       C  0.06015265  0.12303806  0.37308627    -0.04100
C3317       C  0.04794212  0.10923630  0.38724371    -0.00300
C3318       C  0.02482226  0.11032445  0.38751082    -0.02900
C3319       C  0.01427248  0.15202066  0.34308775     0.36400
C3320       C  0.05908101  0.09324800  0.40095215     0.40000
C3321       C  0.06102744  0.15218369  0.34446235     0.39100
C3322       C  0.01244701  0.09672548  0.40264918     0.36000
C3323       C  0.98789360  0.09044087  0.35286876     0.36700
C3324       C  0.94387797  0.16221823  0.39426169     0.40000
N3325       N  0.07071279  0.16403355  0.33318958    -0.38100
N3326       N  0.00509773  0.16324201  0.33080798    -0.39700
N3327       N  0.06798880  0.08039609  0.41174262    -0.37400
N3328       N  0.00252423  0.08588605  0.41469547    -0.39800
N3329       N  0.00086712  0.17459386  0.40173856    -0.39600
N3330       N  0.93495086  0.17674277  0.40259712    -0.37200
N3331       N  0.93104395  0.07766999  0.34574888    -0.38300
N3332       N  0.99686041  0.07583501  0.34472898    -0.39900
C3333       C  0.14202371  0.02301030  0.39054332    -0.04900
C3334       C  0.12831260  0.01108984  0.37619469     0.09300
C3335       C  0.11441056  0.02244708  0.36158301    -0.02300
C3336       C  0.11413768  0.04563069  0.36134470    -0.00500
C3337       C  0.12794770  0.05768224  0.37565393    -0.04100
C3338       C  0.14189173  0.04619426  0.39028932     0.02900
C3339       C  0.12860470  0.98648316  0.37645923     0.09700
C3340       C  0.10031520  0.01018183  0.34683138     0.35600
C3341       C  0.15660369  0.05814567  0.40471130     0.39100
C3342       C  0.11336965  0.97471689  0.38935653    -0.04500
C3343       C  0.11380012  0.95152806  0.38977750     0.02700
C3344       C  0.12966911  0.93995781  0.37745973    -0.04100
C3345       C  0.14503006  0.95182140  0.36469154    -0.00300
C3346       C  0.14427526  0.97496763  0.36395921    -0.02900
C3347       C  0.09705068  0.98655962  0.40194312     0.36400
C3348       C  0.16211132  0.94025136  0.35284595     0.40000
C3349       C  0.09735080  0.93959786  0.40219603     0.39100
C3350       C  0.15942127  0.98700813  0.35008109     0.36000
C3351       C  0.15631764  0.01130826  0.40556656     0.36700
C3352       C  0.09897471  0.05701183  0.34692774     0.40000
N3353       N  0.08417040  0.93006494  0.41201500    -0.38100
N3354       N  0.08402238  0.99608449  0.41190922    -0.39700
N3355       N  0.17579540  0.93098665  0.34352886    -0.37400
N3356       N  0.17137328  0.99665087  0.33889579    -0.39800
N3357       N  0.08908059  0.00035796  0.33508124    -0.39600
N3358       N  0.08684925  0.06611690  0.33548482    -0.37200
N3359       N  0.16834007  0.06767048  0.41622017    -0.38300
N3360       N  0.16769829  0.00190560  0.41751964    -0.39900
loop_ 
_geom_bond_atom_site_label_1 
_geom_bond_atom_site_label_2 
_geom_bond_distance 
_geom_bond_site_symmetry_2 
_ccdc_geom_bond_type 
O1            V9   1.901       .  S
O1           C11   1.265       .  A
O2            V9   1.897       .  S
O2           C12   1.264       .  A
O3            V9   1.900       .  S
O3           C13   1.265       .  A
O4            V9   1.901       .  S
O4           C14   1.264       .  A
O5           V10   1.901       .  S
O5           C14   1.264       .  A
O6           V10   1.900       .  S
O6           C13   1.265       .  A
O7           V10   1.904       .  S
O7           C12   1.266       .  A
O8           V10   1.902       .  S
O8           C11   1.265       .  A
V9           V10   2.086       .  T
C11        C3337   1.491       .  S
C12        C3281   1.488       .  S
C13        C3316   1.490       .  S
C14        C3253   1.481       .  S
O15          V23   1.906       .  S
O15          C25   1.266       .  A
O16          V23   1.908       .  S
O16          C26   1.266       .  A
O17          V23   1.899       .  S
O17          C27   1.264       .  A
O18          V23   1.897       .  S
O18          C28   1.264       .  A
O19          V24   1.904       .  S
O19          C28   1.266       .  A
O20          V24   1.904       .  S
O20          C27   1.266       .  A
O21          V24   1.897       .  S
O21          C26   1.264       .  A
O22          V24   1.899       .  S
O22          C25   1.264       .  A
V23          V24   2.086       .  T
C25        C3169   1.487       .  S
C26        C3344   1.488       .  S
C27        C3225   1.486       .  S
C28        C3197   1.490       .  S
O29          V37   1.895       .  S
O29          C39   1.263       .  A
O30          V37   1.896       .  S
O30          C40   1.264       .  A
O31          V37   1.901       .  S
O31          C41   1.264       .  A
O32          V37   1.905       .  S
O32          C42   1.267       .  A
O33          V38   1.901       .  S
O33          C42   1.265       .  A
O34          V38   1.901       .  S
O34          C41   1.264       .  A
O35          V38   1.907       .  S
O35          C40   1.266       .  A
O36          V38   1.904       .  S
O36          C39   1.266       .  A
V37          V38   2.083       .  T
C39        C3085   1.504       .  S
C40        C3141   1.488       .  S
C41        C3309   1.483       .  S
C42        C3113   1.507       .  S
O43          V51   1.905       .  S
O43          C53   1.266       .  A
O44          V51   1.906       .  S
O44          C54   1.266       .  A
O45          V51   1.904       .  S
O45          C55   1.264       .  A
O46          V51   1.902       .  S
O46          C56   1.265       .  A
O47          V52   1.900       .  S
O47          C56   1.264       .  A
O48          V52   1.898       .  S
O48          C55   1.263       .  A
O49          V52   1.900       .  S
O49          C54   1.265       .  A
O50          V52   1.901       .  S
O50          C53   1.265       .  A
V51          V52   2.085       .  T
C53        C3232   1.495       .  S
C54        C3029   1.504       .  S
C55        C3057   1.479       .  S
C56        C3148   1.490       .  S
O57          V65   1.902       .  S
O57          C67   1.266       .  A
O58          V65   1.902       .  S
O58          C68   1.265       .  A
O59          V65   1.899       .  S
O59          C69   1.264       .  A
O60          V65   1.898       .  S
O60          C70   1.264       .  A
O61          V66   1.905       .  S
O61          C70   1.267       .  A
O62          V66   1.904       .  S
O62          C69   1.265       .  A
O63          V66   1.903       .  S
O63          C68   1.265       .  A
O64          V66   1.903       .  S
O64          C67   1.265       .  A
V65          V66   2.082       .  T
C67        C2973   1.497       .  S
C68        C3288   1.487       .  S
C69        C2945   1.484       .  S
C70        C3008   1.510       .  S
O71          V79   1.899       .  S
O71          C81   1.264       .  A
O72          V79   1.898       .  S
O72          C82   1.264       .  A
O73          V79   1.901       .  S
O73          C83   1.265       .  A
O74          V79   1.902       .  S
O74          C84   1.265       .  A
O75          V80   1.904       .  S
O75          C84   1.265       .  A
O76          V80   1.903       .  S
O76          C83   1.265       .  A
O77          V80   1.906       .  S
O77          C82   1.266       .  A
O78          V80   1.907       .  S
O78          C81   1.266       .  A
V79          V80   2.085       .  T
C81        C2917   1.486       .  S
C82        C2861   1.485       .  S
C83        C3001   1.485       .  S
C84        C2896   1.488       .  S
O85          V93   1.907       .  S
O85          C95   1.267       .  A
O86          V93   1.909       .  S
O86          C96   1.267       .  A
O87          V93   1.901       .  S
O87          C97   1.264       .  A
O88          V93   1.901       .  S
O88          C98   1.264       .  A
O89          V94   1.906       .  S
O89          C98   1.265       .  A
O90          V94   1.902       .  S
O90          C97   1.265       .  A
O91          V94   1.898       .  S
O91          C96   1.264       .  A
O92          V94   1.898       .  S
O92          C95   1.264       .  A
V93          V94   2.086       .  T
C95        C2833   1.494       .  S
C96        C2805   1.494       .  S
C97        C3176   1.486       .  S
C98        C2980   1.486       .  S
O99         V107   1.898       .  S
O99         C109   1.265       .  A
O100        V107   1.896       .  S
O100        C110   1.263       .  A
O101        V107   1.904       .  S
O101        C111   1.265       .  A
O102        V107   1.903       .  S
O102        C112   1.266       .  A
O103        V108   1.901       .  S
O103        C112   1.265       .  A
O104        V108   1.905       .  S
O104        C111   1.265       .  A
O105        V108   1.909       .  S
O105        C110   1.267       .  A
O106        V108   1.909       .  S
O106        C109   1.267       .  A
V107        V108   2.083       .  T
C109       C2924   1.511       .  S
C110       C2777   1.489       .  S
C111       C2840   1.492       .  S
C112       C2756   1.494       .  S
O113        V121   1.901       .  S
O113        C123   1.264       .  A
O114        V121   1.904       .  S
O114        C124   1.266       .  A
O115        V121   1.896       .  S
O115        C125   1.264       .  A
O116        V121   1.895       .  S
O116        C126   1.264       .  A
O117        V122   1.906       .  S
O117        C126   1.267       .  A
O118        V122   1.902       .  S
O118        C125   1.266       .  A
O119        V122   1.892       .  S
O119        C124   1.263       .  A
O120        V122   1.897       .  S
O120        C123   1.262       .  A
V121        V122   2.084       .  T
C123       C2721   1.476       .  S
C124       C2672   1.491       .  S
C125       C2700   1.507       .  S
C126       C3120   1.495       .  S
O127        V135   1.899       .  S
O127        C137   1.265       .  A
O128        V135   1.899       .  S
O128        C138   1.264       .  A
O129        V135   1.897       .  S
O129        C139   1.264       .  A
O130        V135   1.899       .  S
O130        C140   1.264       .  A
O131        V136   1.899       .  S
O131        C140   1.265       .  A
O132        V136   1.900       .  S
O132        C139   1.265       .  A
O133        V136   1.895       .  S
O133        C138   1.263       .  A
O134        V136   1.899       .  S
O134        C137   1.265       .  A
V135        V136   2.084       .  T
C137       C2728   1.509       .  S
C138       C2609   1.482       .  S
C139       C2581   1.492       .  S
C140       C2644   1.488       .  S
O141        V149   1.902       .  S
O141        C151   1.265       .  A
O142        V149   1.900       .  S
O142        C152   1.264       .  A
O143        V149   1.900       .  S
O143        C153   1.264       .  A
O144        V149   1.897       .  S
O144        C154   1.264       .  A
O145        V150   1.904       .  S
O145        C154   1.266       .  A
O146        V150   1.902       .  S
O146        C153   1.266       .  A
O147        V150   1.898       .  S
O147        C152   1.263       .  A
O148        V150   1.896       .  S
O148        C151   1.263       .  A
V149        V150   2.087       .  T
C151       C3260   1.485       .  S
C152       C2693   1.477       .  S
C153       C2553   1.490       .  S
C154       C2525   1.492       .  S
O155        V163   1.898       .  S
O155        C165   1.264       .  A
O156        V163   1.898       .  S
O156        C166   1.264       .  A
O157        V163   1.902       .  S
O157        C167   1.265       .  A
O158        V163   1.901       .  S
O158        C168   1.264       .  A
O159        V164   1.899       .  S
O159        C168   1.265       .  A
O160        V164   1.897       .  S
O160        C167   1.263       .  A
O161        V164   1.902       .  S
O161        C166   1.265       .  A
O162        V164   1.901       .  S
O162        C165   1.266       .  A
V163        V164   2.086       .  T
C165       C2504   1.497       .  S
C166       C2637   1.483       .  S
C167       C2469   1.486       .  S
C168       C2560   1.487       .  S
O169        V177   1.903       .  S
O169        C179   1.266       .  A
O170        V177   1.905       .  S
O170        C180   1.266       .  A
O171        V177   1.900       .  S
O171        C181   1.263       .  A
O172        V177   1.897       .  S
O172        C182   1.264       .  A
O173        V178   1.899       .  S
O173        C182   1.264       .  A
O174        V178   1.901       .  S
O174        C181   1.264       .  A
O175        V178   1.900       .  S
O175        C180   1.265       .  A
O176        V178   1.899       .  S
O176        C179   1.265       .  A
V177        V178   2.086       .  T
C179       C2441   1.495       .  S
C180       C2385   1.497       .  S
C181       C3064   1.478       .  S
C182       C2420   1.486       .  S
O183        V191   1.902       .  S
O183        C193   1.265       .  A
O184        V191   1.903       .  S
O184        C194   1.265       .  A
O185        V191   1.903       .  S
O185        C195   1.266       .  A
O186        V191   1.902       .  S
O186        C196   1.265       .  A
O187        V192   1.901       .  S
O187        C196   1.265       .  A
O188        V192   1.900       .  S
O188        C195   1.265       .  A
O189        V192   1.898       .  S
O189        C194   1.264       .  A
O190        V192   1.898       .  S
O190        C193   1.264       .  A
V191        V192   2.086       .  T
C193       C2448   1.486       .  S
C194       C2329   1.487       .  S
C195       C2357   1.493       .  S
C196       C2301   1.489       .  S
O197        V205   1.902       .  S
O197        C207   1.265       .  A
O198        V205   1.901       .  S
O198        C208   1.265       .  A
O199        V205   1.900       .  S
O199        C209   1.265       .  A
O200        V205   1.899       .  S
O200        C210   1.264       .  A
O201        V206   1.896       .  S
O201        C210   1.263       .  A
O202        V206   1.896       .  S
O202        C209   1.264       .  A
O203        V206   1.902       .  S
O203        C208   1.265       .  A
O204        V206   1.903       .  S
O204        C207   1.266       .  A
V205        V206   2.083       .  T
C207       C2273   1.493       .  S
C208       C2245   1.490       .  S
C209       C3092   1.507       .  S
C210       C2413   1.481       .  S
O211        V219   1.897       .  S
O211        C221   1.264       .  A
O212        V219   1.895       .  S
O212        C222   1.263       .  A
O213        V219   1.901       .  S
O213        C223   1.265       .  A
O214        V219   1.904       .  S
O214        C224   1.265       .  A
O215        V220   1.901       .  S
O215        C224   1.265       .  A
O216        V220   1.901       .  S
O216        C223   1.265       .  A
O217        V220   1.903       .  S
O217        C222   1.265       .  A
O218        V220   1.903       .  S
O218        C221   1.265       .  A
V219        V220   2.086       .  T
C221       C2364   1.487       .  S
C222       C2217   1.479       .  S
C223       C2280   1.487       .  S
C224       C2189   1.488       .  S
O225        V233   1.905       .  S
O225        C235   1.265       .  A
O226        V233   1.906       .  S
O226        C236   1.266       .  A
O227        V233   1.902       .  S
O227        C237   1.265       .  A
O228        V233   1.904       .  S
O228        C238   1.265       .  A
O229        V234   1.903       .  S
O229        C238   1.265       .  A
O230        V234   1.902       .  S
O230        C237   1.265       .  A
O231        V234   1.899       .  S
O231        C236   1.264       .  A
O232        V234   1.897       .  S
O232        C235   1.264       .  A
V233        V234   2.085       .  T
C235       C3204   1.485       .  S
C236       C2133   1.487       .  S
C237       C2161   1.486       .  S
C238       C2112   1.489       .  S
O239        V247   1.908       .  S
O239        C249   1.266       .  A
O240        V247   1.906       .  S
O240        C250   1.267       .  A
O241        V247   1.905       .  S
O241        C251   1.265       .  A
O242        V247   1.904       .  S
O242        C252   1.266       .  A
O243        V248   1.899       .  S
O243        C252   1.264       .  A
O244        V248   1.898       .  S
O244        C251   1.264       .  A
O245        V248   1.904       .  S
O245        C250   1.266       .  A
O246        V248   1.900       .  S
O246        C249   1.265       .  A
V247        V248   2.082       .  T
C249       C2028   1.490       .  S
C250       C2077   1.515       .  S
C251       C2049   1.485       .  S
C252       C2168   1.491       .  S
O253        V261   1.902       .  S
O253        C263   1.265       .  A
O254        V261   1.899       .  S
O254        C264   1.264       .  A
O255        V261   1.899       .  S
O255        C265   1.264       .  A
O256        V261   1.900       .  S
O256        C266   1.265       .  A
O257        V262   1.899       .  S
O257        C266   1.265       .  A
O258        V262   1.896       .  S
O258        C265   1.263       .  A
O259        V262   1.903       .  S
O259        C264   1.265       .  A
O260        V262   1.905       .  S
O260        C263   1.265       .  A
V261        V262   2.083       .  T
C263       C2084   1.487       .  S
C264       C1965   1.490       .  S
C265       C1937   1.481       .  S
C266       C2000   1.508       .  S
O267        V275   1.898       .  S
O267        C277   1.263       .  A
O268        V275   1.900       .  S
O268        C278   1.265       .  A
O269        V275   1.908       .  S
O269        C279   1.267       .  A
O270        V275   1.907       .  S
O270        C280   1.267       .  A
O271        V276   1.900       .  S
O271        C280   1.265       .  A
O272        V276   1.901       .  S
O272        C279   1.265       .  A
O273        V276   1.907       .  S
O273        C278   1.267       .  A
O274        V276   1.902       .  S
O274        C277   1.265       .  A
V275        V276   2.083       .  T
C277       C1993   1.480       .  S
C278       C1916   1.511       .  S
C279       C2140   1.499       .  S
C280       C3036   1.498       .  S
O281        V289   1.904       .  S
O281        C291   1.266       .  A
O282        V289   1.903       .  S
O282        C292   1.266       .  A
O283        V289   1.900       .  S
O283        C293   1.264       .  A
O284        V289   1.899       .  S
O284        C294   1.264       .  A
O285        V290   1.908       .  S
O285        C294   1.268       .  A
O286        V290   1.911       .  S
O286        C293   1.267       .  A
O287        V290   1.902       .  S
O287        C292   1.265       .  A
O288        V290   1.902       .  S
O288        C291   1.264       .  A
V289        V290   2.080       .  T
C291       C2784   1.488       .  S
C292       C1881   1.501       .  S
C293       C2021   1.489       .  S
C294       C1853   1.506       .  S
O295        V303   1.900       .  S
O295        C305   1.266       .  A
O296        V303   1.900       .  S
O296        C306   1.265       .  A
O297        V303   1.901       .  S
O297        C307   1.264       .  A
O298        V303   1.902       .  S
O298        C308   1.265       .  A
O299        V304   1.904       .  S
O299        C308   1.265       .  A
O300        V304   1.903       .  S
O300        C307   1.265       .  A
O301        V304   1.896       .  S
O301        C306   1.264       .  A
O302        V304   1.898       .  S
O302        C305   1.265       .  A
V303        V304   2.082       .  T
C305       C2497   1.503       .  S
C306       C1825   1.483       .  S
C307       C2868   1.485       .  S
C308       C1888   1.485       .  S
O309        V317   1.898       .  S
O309        C319   1.264       .  A
O310        V317   1.896       .  S
O310        C320   1.265       .  A
O311        V317   1.901       .  S
O311        C321   1.264       .  A
O312        V317   1.900       .  S
O312        C322   1.265       .  A
O313        V318   1.904       .  S
O313        C322   1.265       .  A
O314        V318   1.901       .  S
O314        C321   1.265       .  A
O315        V318   1.901       .  S
O315        C320   1.265       .  A
O316        V318   1.896       .  S
O316        C319   1.264       .  A
V317        V318   2.083       .  T
C319       C1832   1.481       .  S
C320       C2588   1.504       .  S
C321       C2224   1.485       .  S
C322       C1804   1.493       .  S
O323        V331   1.900       .  S
O323        C333   1.264       .  A
O324        V331   1.902       .  S
O324        C334   1.264       .  A
O325        V331   1.903       .  S
O325        C335   1.265       .  A
O326        V331   1.904       .  S
O326        C336   1.265       .  A
O327        V332   1.901       .  S
O327        C336   1.265       .  A
O328        V332   1.901       .  S
O328        C335   1.265       .  A
O329        V332   1.900       .  S
O329        C334   1.264       .  A
O330        V332   1.899       .  S
O330        C333   1.264       .  A
V331        V332   2.086       .  T
C333       C1972   1.483       .  S
C334       C1860   1.485       .  S
C335       C1797   1.488       .  S
C336       C2308   1.490       .  S
O337        V345   1.906       .  S
O337        C347   1.267       .  A
O338        V345   1.908       .  S
O338        C348   1.266       .  A
O339        V345   1.898       .  S
O339        C349   1.263       .  A
O340        V345   1.895       .  S
O340        C350   1.263       .  A
O341        V346   1.906       .  S
O341        C350   1.267       .  A
O342        V346   1.907       .  S
O342        C349   1.267       .  A
O343        V346   1.899       .  S
O343        C348   1.263       .  A
O344        V346   1.900       .  S
O344        C347   1.264       .  A
V345        V346   2.081       .  T
C347       C2532   1.503       .  S
C348       C1769   1.483       .  S
C349       C1741   1.489       .  S
C350       C1720   1.499       .  S
O351        V359   1.906       .  S
O351        C361   1.266       .  A
O352        V359   1.904       .  S
O352        C362   1.265       .  A
O353        V359   1.899       .  S
O353        C363   1.265       .  A
O354        V359   1.899       .  S
O354        C364   1.265       .  A
O355        V360   1.900       .  S
O355        C364   1.265       .  A
O356        V360   1.899       .  S
O356        C363   1.265       .  A
O357        V360   1.902       .  S
O357        C362   1.264       .  A
O358        V360   1.902       .  S
O358        C361   1.264       .  A
V359        V360   2.083       .  T
C361       C1692   1.488       .  S
C362       C1657   1.484       .  S
C363       C2476   1.492       .  S
C364       C1776   1.510       .  S
O365        V373   1.902       .  S
O365        C375   1.265       .  A
O366        V373   1.904       .  S
O366        C376   1.266       .  A
O367        V373   1.902       .  S
O367        C377   1.265       .  A
O368        V373   1.903       .  S
O368        C378   1.265       .  A
O369        V374   1.905       .  S
O369        C378   1.265       .  A
O370        V374   1.901       .  S
O370        C377   1.264       .  A
O371        V374   1.901       .  S
O371        C376   1.265       .  A
O372        V374   1.899       .  S
O372        C375   1.264       .  A
V373        V374   2.086       .  T
C375       C1601   1.488       .  S
C376       C1685   1.497       .  S
C377       C2056   1.485       .  S
C378       C1629   1.490       .  S
O379        V387   1.905       .  S
O379        C389   1.266       .  A
O380        V387   1.900       .  S
O380        C390   1.265       .  A
O381        V387   1.903       .  S
O381        C391   1.265       .  A
O382        V387   1.904       .  S
O382        C392   1.265       .  A
O383        V388   1.908       .  S
O383        C392   1.266       .  A
O384        V388   1.905       .  S
O384        C391   1.266       .  A
O385        V388   1.900       .  S
O385        C390   1.264       .  A
O386        V388   1.898       .  S
O386        C389   1.265       .  A
V387        V388   2.083       .  T
C389       C1748   1.508       .  S
C390       C1573   1.485       .  S
C391       C1636   1.497       .  S
C392       C2105   1.491       .  S
O393        V401   1.905       .  S
O393        C403   1.266       .  A
O394        V401   1.903       .  S
O394        C404   1.266       .  A
O395        V401   1.896       .  S
O395        C405   1.264       .  A
O396        V401   1.895       .  S
O396        C406   1.262       .  A
O397        V402   1.905       .  S
O397        C406   1.265       .  A
O398        V402   1.906       .  S
O398        C405   1.267       .  A
O399        V402   1.898       .  S
O399        C404   1.264       .  A
O400        V402   1.899       .  S
O400        C403   1.264       .  A
V401        V402   2.083       .  T
C403       C2252   1.491       .  S
C404       C1545   1.489       .  S
C405       C1517   1.510       .  S
C406       C1489   1.481       .  S
O407        V415   1.902       .  S
O407        C417   1.265       .  A
O408        V415   1.902       .  S
O408        C418   1.266       .  A
O409        V415   1.903       .  S
O409        C419   1.265       .  A
O410        V415   1.902       .  S
O410        C420   1.265       .  A
O411        V416   1.904       .  S
O411        C420   1.266       .  A
O412        V416   1.903       .  S
O412        C419   1.265       .  A
O413        V416   1.899       .  S
O413        C418   1.265       .  A
O414        V416   1.897       .  S
O414        C417   1.264       .  A
V415        V416   2.083       .  T
C417       C1461   1.482       .  S
C418       C1433   1.506       .  S
C419       C1552   1.490       .  S
C420       C2196   1.492       .  S
O421        V429   1.900       .  S
O421        C431   1.264       .  A
O422        V429   1.901       .  S
O422        C432   1.264       .  A
O423        V429   1.904       .  S
O423        C433   1.266       .  A
O424        V429   1.903       .  S
O424        C434   1.266       .  A
O425        V430   1.899       .  S
O425        C434   1.264       .  A
O426        V430   1.900       .  S
O426        C433   1.264       .  A
O427        V430   1.904       .  S
O427        C432   1.265       .  A
O428        V430   1.906       .  S
O428        C431   1.265       .  A
V429        V430   2.085       .  T
C431       C1524   1.483       .  S
C432       C1384   1.485       .  S
C433       C2952   1.488       .  S
C434       C1405   1.489       .  S
O435        V443   1.899       .  S
O435        C445   1.264       .  A
O436        V443   1.901       .  S
O436        C446   1.266       .  A
O437        V443   1.903       .  S
O437        C447   1.265       .  A
O438        V443   1.909       .  S
O438        C448   1.266       .  A
O439        V444   1.899       .  S
O439        C448   1.264       .  A
O440        V444   1.903       .  S
O440        C447   1.265       .  A
O441        V444   1.897       .  S
O441        C446   1.264       .  A
O442        V444   1.896       .  S
O442        C445   1.265       .  A
V443        V444   2.083       .  T
C445       C1349   1.498       .  S
C446       C1468   1.506       .  S
C447       C1412   1.491       .  S
C448       C2889   1.491       .  S
O449        V457   1.902       .  S
O449        C459   1.265       .  A
O450        V457   1.897       .  S
O450        C460   1.264       .  A
O451        V457   1.902       .  S
O451        C461   1.265       .  A
O452        V457   1.903       .  S
O452        C462   1.266       .  A
O453        V458   1.899       .  S
O453        C462   1.265       .  A
O454        V458   1.900       .  S
O454        C461   1.264       .  A
O455        V458   1.902       .  S
O455        C460   1.265       .  A
O456        V458   1.902       .  S
O456        C459   1.265       .  A
V457        V458   2.086       .  T
C459       C1265   1.489       .  S
C460       C1293   1.489       .  S
C461       C1321   1.484       .  S
C462       C1909   1.492       .  S
O463        V471   1.900       .  S
O463        C473   1.265       .  A
O464        V471   1.901       .  S
O464        C474   1.265       .  A
O465        V471   1.898       .  S
O465        C475   1.264       .  A
O466        V471   1.899       .  S
O466        C476   1.264       .  A
O467        V472   1.901       .  S
O467        C476   1.265       .  A
O468        V472   1.905       .  S
O468        C475   1.265       .  A
O469        V472   1.897       .  S
O469        C474   1.264       .  A
O470        V472   1.894       .  S
O470        C473   1.263       .  A
V471        V472   2.086       .  T
C473       C1944   1.480       .  S
C474       C1328   1.488       .  S
C475       C1209   1.484       .  S
C476       C1237   1.484       .  S
O477        V485   1.904       .  S
O477        C487   1.266       .  A
O478        V485   1.899       .  S
O478        C488   1.264       .  A
O479        V485   1.899       .  S
O479        C489   1.265       .  A
O480        V485   1.896       .  S
O480        C490   1.264       .  A
O481        V486   1.903       .  S
O481        C490   1.266       .  A
O482        V486   1.901       .  S
O482        C489   1.266       .  A
O483        V486   1.903       .  S
O483        C488   1.265       .  A
O484        V486   1.899       .  S
O484        C487   1.265       .  A
V485        V486   2.081       .  T
C487       C1244   1.504       .  S
C488       C1153   1.486       .  S
C489       C2616   1.497       .  S
C490       C1188   1.506       .  S
O491        V499   1.901       .  S
O491        C501   1.265       .  A
O492        V499   1.901       .  S
O492        C502   1.265       .  A
O493        V499   1.898       .  S
O493        C503   1.264       .  A
O494        V499   1.898       .  S
O494        C504   1.264       .  A
O495        V500   1.900       .  S
O495        C504   1.265       .  A
O496        V500   1.901       .  S
O496        C503   1.265       .  A
O497        V500   1.896       .  S
O497        C502   1.263       .  A
O498        V500   1.897       .  S
O498        C501   1.264       .  A
V499        V500   2.086       .  T
C501       C2665   1.483       .  S
C502       C1181   1.481       .  S
C503       C1300   1.486       .  S
C504       C1125   1.482       .  S
O505        V513   1.903       .  S
O505        C515   1.265       .  A
O506        V513   1.900       .  S
O506        C516   1.265       .  A
O507        V513   1.903       .  S
O507        C517   1.265       .  A
O508        V513   1.906       .  S
O508        C518   1.266       .  A
O509        V514   1.899       .  S
O509        C518   1.264       .  A
O510        V514   1.897       .  S
O510        C517   1.263       .  A
O511        V514   1.900       .  S
O511        C516   1.265       .  A
O512        V514   1.901       .  S
O512        C515   1.265       .  A
V513        V514   2.086       .  T
C515       C2812   1.490       .  S
C516       C1104   1.486       .  S
C517       C1076   1.481       .  S
C518       C1041   1.488       .  S
O519        V527   1.902       .  S
O519        C529   1.264       .  A
O520        V527   1.902       .  S
O520        C530   1.265       .  A
O521        V527   1.901       .  S
O521        C531   1.265       .  A
O522        V527   1.902       .  S
O522        C532   1.265       .  A
O523        V528   1.900       .  S
O523        C532   1.265       .  A
O524        V528   1.900       .  S
O524        C531   1.264       .  A
O525        V528   1.903       .  S
O525        C530   1.266       .  A
O526        V528   1.904       .  S
O526        C529   1.265       .  A
V527        V528   2.083       .  T
C529        C985   1.484       .  S
C530       C1020   1.509       .  S
C531       C1097   1.488       .  S
C532       C2749   1.490       .  S
O533        V541   1.903       .  S
O533        C543   1.265       .  A
O534        V541   1.904       .  S
O534        C544   1.265       .  A
O535        V541   1.896       .  S
O535        C545   1.264       .  A
O536        V541   1.896       .  S
O536        C546   1.264       .  A
O537        V542   1.902       .  S
O537        C546   1.266       .  A
O538        V542   1.903       .  S
O538        C545   1.266       .  A
O539        V542   1.899       .  S
O539        C544   1.264       .  A
O540        V542   1.898       .  S
O540        C543   1.263       .  A
V541        V542   2.086       .  T
C543       C1013   1.482       .  S
C544        C929   1.484       .  S
C545        C957   1.487       .  S
C546       C2336   1.486       .  S
O547        V555   1.899       .  S
O547        C557   1.265       .  A
O548        V555   1.897       .  S
O548        C558   1.264       .  A
O549        V555   1.899       .  S
O549        C559   1.265       .  A
O550        V555   1.895       .  S
O550        C560   1.263       .  A
O551        V556   1.904       .  S
O551        C560   1.265       .  A
O552        V556   1.901       .  S
O552        C559   1.265       .  A
O553        V556   1.904       .  S
O553        C558   1.265       .  A
O554        V556   1.905       .  S
O554        C557   1.266       .  A
V555        V556   2.083       .  T
C557       C2392   1.502       .  S
C558        C964   1.484       .  S
C559       C1069   1.508       .  S
C560        C901   1.482       .  S
O561        V569   1.897       .  S
O561        C571   1.264       .  A
O562        V569   1.894       .  S
O562        C572   1.264       .  A
O563        V569   1.902       .  S
O563        C573   1.265       .  A
O564        V569   1.905       .  S
O564        C574   1.265       .  A
O565        V570   1.900       .  S
O565        C574   1.264       .  A
O566        V570   1.900       .  S
O566        C573   1.263       .  A
O567        V570   1.902       .  S
O567        C572   1.265       .  A
O568        V570   1.901       .  S
O568        C571   1.266       .  A
V569        V570   2.087       .  T
C571        C873   1.487       .  S
C572       C1713   1.488       .  S
C573        C852   1.481       .  S
C574       C1377   1.485       .  S
O575        V583   1.906       .  S
O575        C585   1.266       .  A
O576        V583   1.902       .  S
O576        C586   1.265       .  A
O577        V583   1.898       .  S
O577        C587   1.264       .  A
O578        V583   1.896       .  S
O578        C588   1.264       .  A
O579        V584   1.900       .  S
O579        C588   1.265       .  A
O580        V584   1.904       .  S
O580        C587   1.265       .  A
O581        V584   1.902       .  S
O581        C586   1.264       .  A
O582        V584   1.900       .  S
O582        C585   1.264       .  A
V583        V584   2.086       .  T
C585       C1048   1.488       .  S
C586        C824   1.485       .  S
C587       C1580   1.483       .  S
C588        C880   1.486       .  S
O589        V597   1.903       .  S
O589        C599   1.266       .  A
O590        V597   1.902       .  S
O590        C600   1.265       .  A
O591        V597   1.905       .  S
O591        C601   1.265       .  A
O592        V597   1.902       .  S
O592        C602   1.265       .  A
O593        V598   1.905       .  S
O593        C602   1.266       .  A
O594        V598   1.902       .  S
O594        C601   1.265       .  A
O595        V598   1.899       .  S
O595        C600   1.264       .  A
O596        V598   1.900       .  S
O596        C599   1.265       .  A
V597        V598   2.083       .  T
C599        C817   1.509       .  S
C600        C908   1.487       .  S
C601       C1272   1.490       .  S
C602        C789   1.492       .  S
O603        V611   1.901       .  S
O603        C613   1.264       .  A
O604        V611   1.899       .  S
O604        C614   1.265       .  A
O605        V611   1.901       .  S
O605        C615   1.265       .  A
O606        V611   1.901       .  S
O606        C616   1.264       .  A
O607        V612   1.900       .  S
O607        C616   1.264       .  A
O608        V612   1.902       .  S
O608        C615   1.265       .  A
O609        V612   1.902       .  S
O609        C614   1.266       .  A
O610        V612   1.900       .  S
O610        C613   1.265       .  A
V611        V612   2.083       .  T
C613       C1496   1.487       .  S
C614        C845   1.511       .  S
C615        C796   1.495       .  S
C616       C1132   1.485       .  S
O617        V625   1.901       .  S
O617        C627   1.264       .  A
O618        V625   1.902       .  S
O618        C628   1.264       .  A
O619        V625   1.896       .  S
O619        C629   1.265       .  A
O620        V625   1.899       .  S
O620        C630   1.264       .  A
O621        V626   1.901       .  S
O621        C630   1.265       .  A
O622        V626   1.903       .  S
O622        C629   1.265       .  A
O623        V626   1.900       .  S
O623        C628   1.264       .  A
O624        V626   1.904       .  S
O624        C627   1.265       .  A
V625        V626   2.086       .  T
C627        C992   1.483       .  S
C628        C761   1.481       .  S
C629       C1608   1.493       .  S
C630        C733   1.486       .  S
O631        V639   1.893       .  S
O631        C641   1.263       .  A
O632        V639   1.897       .  S
O632        C642   1.264       .  A
O633        V639   1.905       .  S
O633        C643   1.266       .  A
O634        V639   1.902       .  S
O634        C644   1.266       .  A
O635        V640   1.903       .  S
O635        C644   1.265       .  A
O636        V640   1.903       .  S
O636        C643   1.265       .  A
O637        V640   1.910       .  S
O637        C642   1.267       .  A
O638        V640   1.907       .  S
O638        C641   1.268       .  A
V639        V640   2.081       .  T
C641        C768   1.503       .  S
C642        C936   1.490       .  S
C643       C1216   1.487       .  S
C644        C705   1.500       .  S
O645        V653   1.898       .  S
O645        C655   1.265       .  A
O646        V653   1.897       .  S
O646        C656   1.264       .  A
O647        V653   1.901       .  S
O647        C657   1.264       .  A
O648        V653   1.898       .  S
O648        C658   1.264       .  A
O649        V654   1.902       .  S
O649        C658   1.264       .  A
O650        V654   1.900       .  S
O650        C657   1.264       .  A
O651        V654   1.898       .  S
O651        C656   1.265       .  A
O652        V654   1.900       .  S
O652        C655   1.265       .  A
V653        V654   2.087       .  T
C655       C1440   1.494       .  S
C656        C677   1.484       .  S
C657        C712   1.482       .  S
C658       C1160   1.486       .  S
O659        V667   1.902       .  S
O659        C669   1.265       .  A
O660        V667   1.902       .  S
O660        C670   1.265       .  A
O661        V667   1.897       .  S
O661        C671   1.264       .  A
O662        V667   1.898       .  S
O662        C672   1.264       .  A
O663        V668   1.895       .  S
O663        C672   1.264       .  A
O664        V668   1.895       .  S
O664        C671   1.263       .  A
O665        V668   1.902       .  S
O665        C670   1.265       .  A
O666        V668   1.900       .  S
O666        C669   1.264       .  A
V667        V668   2.087       .  T
C669        C740   1.485       .  S
C670       C1664   1.487       .  S
C671        C684   1.484       .  S
C672       C1356   1.488       .  S
C673        C674   1.409       .  A
C673        C678   1.409       .  A
C673        C691   1.451       .  S
C674        C679   1.492       .  S
C674        C675   1.409       .  A
C675        C676   1.410       .  A
C675        C680   1.451       .  S
C676        C677   1.415       .  A
C676        C692   1.451       .  S
C677        C678   1.415       .  A
C678        C681   1.452       .  S
C679        C682   1.409       .  A
C679        C686   1.409       .  A
C680        N697   1.157       .  T
C681        N699   1.157       .  T
C682        C683   1.409       .  A
C682        C687   1.451       .  S
C683        C684   1.416       .  A
C683        C689   1.451       .  S
C684        C685   1.416       .  A
C685        C686   1.409       .  A
C685        C688   1.452       .  S
C686        C690   1.451       .  S
C687        N694   1.157       .  T
C688        N695   1.157       .  T
C689        N693   1.157       .  T
C690        N696   1.157       .  T
C691        N700   1.157       .  T
C692        N698   1.157       .  T
C701        C702   1.409       .  A
C701        C706   1.413       .  A
C701        C719   1.451       .  S
C702        C707   1.497       .  S
C702        C703   1.408       .  A
C703        C704   1.412       .  A
C703        C708   1.451       .  S
C704        C705   1.421       .  A
C704        C720   1.452       .  S
C705        C706   1.420       .  A
C706        C709   1.450       .  S
C707        C710   1.411       .  A
C707        C714   1.411       .  A
C708        N725   1.157       .  T
C709        N727   1.157       .  T
C710        C711   1.411       .  A
C710        C715   1.450       .  S
C711        C712   1.412       .  A
C711        C717   1.451       .  S
C712        C713   1.413       .  A
C713        C714   1.411       .  A
C713        C716   1.451       .  S
C714        C718   1.450       .  S
C715        N722   1.157       .  T
C716        N723   1.157       .  T
C717        N721   1.157       .  T
C718        N724   1.157       .  T
C719        N728   1.157       .  T
C720        N726   1.157       .  T
C729        C730   1.412       .  A
C729        C734   1.411       .  A
C729        C747   1.451       .  S
C730        C735   1.500       .  S
C730        C731   1.412       .  A
C731        C732   1.411       .  A
C731        C736   1.451       .  S
C732        C733   1.415       .  A
C732        C748   1.452       .  S
C733        C734   1.414       .  A
C734        C737   1.451       .  S
C735        C738   1.412       .  A
C735        C742   1.413       .  A
C736        N753   1.157       .  T
C737        N755   1.157       .  T
C738        C739   1.411       .  A
C738        C743   1.451       .  S
C739        C740   1.414       .  A
C739        C745   1.451       .  S
C740        C741   1.414       .  A
C741        C742   1.412       .  A
C741        C744   1.451       .  S
C742        C746   1.451       .  S
C743        N750   1.157       .  T
C744        N751   1.157       .  T
C745        N749   1.157       .  T
C746        N752   1.157       .  T
C747        N756   1.157       .  T
C748        N754   1.157       .  T
C757        C758   1.412       .  A
C757        C762   1.411       .  A
C757        C775   1.450       .  S
C758        C763   1.497       .  S
C758        C759   1.411       .  A
C759        C760   1.410       .  A
C759        C764   1.451       .  S
C760        C761   1.412       .  A
C760        C776   1.451       .  S
C761        C762   1.413       .  A
C762        C765   1.451       .  S
C763        C766   1.408       .  A
C763        C770   1.407       .  A
C764        N781   1.157       .  T
C765        N783   1.157       .  T
C766        C767   1.413       .  A
C766        C771   1.451       .  S
C767        C768   1.423       .  A
C767        C773   1.451       .  S
C768        C769   1.425       .  A
C769        C770   1.411       .  A
C769        C772   1.451       .  S
C770        C774   1.452       .  S
C771        N778   1.157       .  T
C772        N779   1.158       .  T
C773        N777   1.157       .  T
C774        N780   1.157       .  T
C775        N784   1.157       .  T
C776        N782   1.157       .  T
C785        C786   1.410       .  A
C785        C790   1.413       .  A
C785        C803   1.451       .  S
C786        C791   1.499       .  S
C786        C787   1.410       .  A
C787        C788   1.412       .  A
C787        C792   1.451       .  S
C788        C789   1.417       .  A
C788        C804   1.451       .  S
C789        C790   1.416       .  A
C790        C793   1.449       .  S
C791        C794   1.409       .  A
C791        C798   1.410       .  A
C792        N809   1.157       .  T
C793        N811   1.157       .  T
C794        C795   1.412       .  A
C794        C799   1.450       .  S
C795        C796   1.418       .  A
C795        C801   1.451       .  S
C796        C797   1.418       .  A
C797        C798   1.412       .  A
C797        C800   1.451       .  S
C798        C802   1.451       .  S
C799        N806   1.157       .  T
C800        N807   1.157       .  T
C801        N805   1.157       .  T
C802        N808   1.157       .  T
C803        N812   1.157       .  T
C804        N810   1.157       .  T
C813        C814   1.409       .  A
C813        C818   1.413       .  A
C813        C831   1.452       .  S
C814        C819   1.503       .  S
C814        C815   1.410       .  A
C815        C816   1.413       .  A
C815        C820   1.452       .  S
C816        C817   1.425       .  A
C816        C832   1.451       .  S
C817        C818   1.426       .  A
C818        C821   1.451       .  S
C819        C822   1.413       .  A
C819        C826   1.414       .  A
C820        N837   1.157       .  T
C821        N839   1.158       .  T
C822        C823   1.411       .  A
C822        C827   1.451       .  S
C823        C824   1.414       .  A
C823        C829   1.452       .  S
C824        C825   1.413       .  A
C825        C826   1.412       .  A
C825        C828   1.451       .  S
C826        C830   1.451       .  S
C827        N834   1.157       .  T
C828        N835   1.157       .  T
C829        N833   1.157       .  T
C830        N836   1.157       .  T
C831        N840   1.157       .  T
C832        N838   1.157       .  T
C841        C842   1.408       .  A
C841        C846   1.413       .  A
C841        C859   1.452       .  S
C842        C847   1.500       .  S
C842        C843   1.407       .  A
C843        C844   1.413       .  A
C843        C848   1.452       .  S
C844        C845   1.427       .  A
C844        C860   1.452       .  S
C845        C846   1.427       .  A
C846        C849   1.451       .  S
C847        C850   1.413       .  A
C847        C854   1.412       .  A
C848        N865   1.157       .  T
C849        N867   1.158       .  T
C850        C851   1.412       .  A
C850        C855   1.450       .  S
C851        C852   1.412       .  A
C851        C857   1.451       .  S
C852        C853   1.412       .  A
C853        C854   1.410       .  A
C853        C856   1.451       .  S
C854        C858   1.451       .  S
C855        N862   1.157       .  T
C856        N863   1.157       .  T
C857        N861   1.157       .  T
C858        N864   1.157       .  T
C859        N868   1.157       .  T
C860        N866   1.158       .  T
C869        C870   1.409       .  A
C869        C874   1.411       .  A
C869        C887   1.451       .  S
C870        C875   1.494       .  S
C870        C871   1.410       .  A
C871        C872   1.410       .  A
C871        C876   1.451       .  S
C872        C873   1.415       .  A
C872        C888   1.451       .  S
C873        C874   1.417       .  A
C874        C877   1.451       .  S
C875        C878   1.409       .  A
C875        C882   1.410       .  A
C876        N893   1.157       .  T
C877        N895   1.157       .  T
C878        C879   1.410       .  A
C878        C883   1.451       .  S
C879        C880   1.416       .  A
C879        C885   1.452       .  S
C880        C881   1.416       .  A
C881        C882   1.410       .  A
C881        C884   1.451       .  S
C882        C886   1.451       .  S
C883        N890   1.157       .  T
C884        N891   1.157       .  T
C885        N889   1.157       .  T
C886        N892   1.157       .  T
C887        N896   1.157       .  T
C888        N894   1.157       .  T
C897        C898   1.412       .  A
C897        C902   1.412       .  A
C897        C915   1.450       .  S
C898        C903   1.497       .  S
C898        C899   1.411       .  A
C899        C900   1.409       .  A
C899        C904   1.451       .  S
C900        C901   1.413       .  A
C900        C916   1.452       .  S
C901        C902   1.414       .  A
C902        C905   1.451       .  S
C903        C906   1.411       .  A
C903        C910   1.410       .  A
C904        N921   1.157       .  T
C905        N923   1.157       .  T
C906        C907   1.412       .  A
C906        C911   1.451       .  S
C907        C908   1.415       .  A
C907        C913   1.451       .  S
C908        C909   1.416       .  A
C909        C910   1.411       .  A
C909        C912   1.451       .  S
C910        C914   1.451       .  S
C911        N918   1.157       .  T
C912        N919   1.157       .  T
C913        N917   1.157       .  T
C914        N920   1.157       .  T
C915        N924   1.157       .  T
C916        N922   1.157       .  T
C925        C926   1.412       .  A
C925        C930   1.412       .  A
C925        C943   1.450       .  S
C926        C931   1.498       .  S
C926        C927   1.411       .  A
C927        C928   1.412       .  A
C927        C932   1.450       .  S
C928        C929   1.413       .  A
C928        C944   1.451       .  S
C929        C930   1.414       .  A
C930        C933   1.451       .  S
C931        C934   1.410       .  A
C931        C938   1.410       .  A
C932        N949   1.157       .  T
C933        N951   1.157       .  T
C934        C935   1.412       .  A
C934        C939   1.450       .  S
C935        C936   1.417       .  A
C935        C941   1.451       .  S
C936        C937   1.414       .  A
C937        C938   1.413       .  A
C937        C940   1.448       .  S
C938        C942   1.451       .  S
C939        N946   1.157       .  T
C940        N947   1.156       .  T
C941        N945   1.157       .  T
C942        N948   1.157       .  T
C943        N952   1.157       .  T
C944        N950   1.157       .  T
C953        C954   1.412       .  A
C953        C958   1.412       .  A
C953        C971   1.451       .  S
C954        C959   1.497   1_556  S
C954        C955   1.410       .  A
C955        C956   1.410       .  A
C955        C960   1.451       .  S
C956        C957   1.415       .  A
C956        C972   1.451       .  S
C957        C958   1.415       .  A
C958        C961   1.451       .  S
C959        C962   1.412       .  A
C959        C966   1.411       .  A
C960        N977   1.157       .  T
C961        N979   1.157       .  T
C962        C963   1.411       .  A
C962        C967   1.451       .  S
C963        C964   1.414       .  A
C963        C969   1.450       .  S
C964        C965   1.414       .  A
C965        C966   1.410       .  A
C965        C968   1.452       .  S
C966        C970   1.451       .  S
C967        N974   1.157   1_554  T
C968        N975   1.157       .  T
C969        N973   1.157       .  T
C970        N976   1.157       .  T
C971        N980   1.157       .  T
C972        N978   1.157       .  T
C981        C982   1.412       .  A
C981        C986   1.413       .  A
C981        C999   1.450       .  S
C982        C987   1.499       .  S
C982        C983   1.411       .  A
C983        C984   1.412       .  A
C983        C988   1.450       .  S
C984        C985   1.413       .  A
C984       C1000   1.451       .  S
C985        C986   1.413       .  A
C986        C989   1.451       .  S
C987        C990   1.412       .  A
C987        C994   1.412       .  A
C988       N1005   1.157       .  T
C989       N1007   1.157       .  T
C990        C991   1.412       .  A
C990        C995   1.450       .  S
C991        C992   1.412       .  A
C991        C997   1.451       .  S
C992        C993   1.413       .  A
C993        C994   1.412       .  A
C993        C996   1.451       .  S
C994        C998   1.450       .  S
C995       N1002   1.157       .  T
C996       N1003   1.157       .  T
C997       N1001   1.157       .  T
C998       N1004   1.157       .  T
C999       N1008   1.157       .  T
C1000      N1006   1.157       .  T
C1009      C1010   1.412       .  A
C1009      C1014   1.411       .  A
C1009      C1027   1.450       .  S
C1010      C1015   1.499   1_655  S
C1010      C1011   1.412       .  A
C1011      C1012   1.411       .  A
C1011      C1016   1.450       .  S
C1012      C1013   1.412       .  A
C1012      C1028   1.451       .  S
C1013      C1014   1.414       .  A
C1014      C1017   1.452       .  S
C1015      C1018   1.407       .  A
C1015      C1022   1.407       .  A
C1016      N1033   1.157       .  T
C1017      N1035   1.157       .  T
C1018      C1019   1.413       .  A
C1018      C1023   1.452       .  S
C1019      C1020   1.426       .  A
C1019      C1025   1.451       .  S
C1020      C1021   1.426       .  A
C1021      C1022   1.413       .  A
C1021      C1024   1.451       .  S
C1022      C1026   1.452       .  S
C1023      N1030   1.157   1_455  T
C1024      N1031   1.158       .  T
C1025      N1029   1.158       .  T
C1026      N1032   1.157   1_455  T
C1027      N1036   1.157       .  T
C1028      N1034   1.157       .  T
C1037      C1038   1.411       .  A
C1037      C1042   1.412       .  A
C1037      C1055   1.450       .  S
C1038      C1043   1.500       .  S
C1038      C1039   1.412       .  A
C1039      C1040   1.413       .  A
C1039      C1044   1.450       .  S
C1040      C1041   1.414       .  A
C1040      C1056   1.451       .  S
C1041      C1042   1.415       .  A
C1042      C1045   1.451       .  S
C1043      C1046   1.411       .  A
C1043      C1050   1.412       .  A
C1044      N1061   1.157       .  T
C1045      N1063   1.157       .  T
C1046      C1047   1.413       .  A
C1046      C1051   1.450       .  S
C1047      C1048   1.415       .  A
C1047      C1053   1.451       .  S
C1048      C1049   1.414       .  A
C1049      C1050   1.412       .  A
C1049      C1052   1.451       .  S
C1050      C1054   1.450       .  S
C1051      N1058   1.157       .  T
C1052      N1059   1.157       .  T
C1053      N1057   1.157       .  T
C1054      N1060   1.157       .  T
C1055      N1064   1.157       .  T
C1056      N1062   1.157       .  T
C1065      C1066   1.408       .  A
C1065      C1070   1.412       .  A
C1065      C1083   1.452       .  S
C1066      C1071   1.498   1_655  S
C1066      C1067   1.407       .  A
C1067      C1068   1.412       .  A
C1067      C1072   1.452       .  S
C1068      C1069   1.426       .  A
C1068      C1084   1.451       .  S
C1069      C1070   1.426       .  A
C1070      C1073   1.452       .  S
C1071      C1074   1.412       .  A
C1071      C1078   1.412       .  A
C1072      N1089   1.157   1_655  T
C1073      N1091   1.157       .  T
C1074      C1075   1.410       .  A
C1074      C1079   1.451       .  S
C1075      C1076   1.413       .  A
C1075      C1081   1.451       .  S
C1076      C1077   1.413       .  A
C1077      C1078   1.411       .  A
C1077      C1080   1.451       .  S
C1078      C1082   1.450       .  S
C1079      N1086   1.157       .  T
C1080      N1087   1.157       .  T
C1081      N1085   1.157       .  T
C1082      N1088   1.157       .  T
C1083      N1092   1.157   1_655  T
C1084      N1090   1.158       .  T
C1093      C1094   1.410       .  A
C1093      C1098   1.411       .  A
C1093      C1111   1.451       .  S
C1094      C1099   1.496   1_556  S
C1094      C1095   1.410       .  A
C1095      C1096   1.411       .  A
C1095      C1100   1.451       .  S
C1096      C1097   1.416       .  A
C1096      C1112   1.450       .  S
C1097      C1098   1.416       .  A
C1098      C1101   1.451       .  S
C1099      C1102   1.410       .  A
C1099      C1106   1.411       .  A
C1100      N1117   1.157       .  T
C1101      N1119   1.157       .  T
C1102      C1103   1.410       .  A
C1102      C1107   1.451       .  S
C1103      C1104   1.415       .  A
C1103      C1109   1.451       .  S
C1104      C1105   1.414       .  A
C1105      C1106   1.411       .  A
C1105      C1108   1.451       .  S
C1106      C1110   1.450       .  S
C1107      N1114   1.157   1_554  T
C1108      N1115   1.157       .  T
C1109      N1113   1.157       .  T
C1110      N1116   1.157   1_554  T
C1111      N1120   1.157       .  T
C1112      N1118   1.157       .  T
C1121      C1122   1.410       .  A
C1121      C1126   1.410       .  A
C1121      C1139   1.450       .  S
C1122      C1127   1.495       .  S
C1122      C1123   1.411       .  A
C1123      C1124   1.411       .  A
C1123      C1128   1.450       .  S
C1124      C1125   1.414       .  A
C1124      C1140   1.451       .  S
C1125      C1126   1.414       .  A
C1126      C1129   1.451       .  S
C1127      C1130   1.410       .  A
C1127      C1134   1.410       .  A
C1128      N1145   1.157       .  T
C1129      N1147   1.157       .  T
C1130      C1131   1.411       .  A
C1130      C1135   1.451       .  S
C1131      C1132   1.415       .  A
C1131      C1137   1.451       .  S
C1132      C1133   1.415       .  A
C1133      C1134   1.410       .  A
C1133      C1136   1.451       .  S
C1134      C1138   1.451       .  S
C1135      N1142   1.157       .  T
C1136      N1143   1.157       .  T
C1137      N1141   1.157       .  T
C1138      N1144   1.157       .  T
C1139      N1148   1.157       .  T
C1140      N1146   1.157       .  T
C1149      C1150   1.410       .  A
C1149      C1154   1.411       .  A
C1149      C1167   1.451       .  S
C1150      C1155   1.496       .  S
C1150      C1151   1.410       .  A
C1151      C1152   1.411       .  A
C1151      C1156   1.450       .  S
C1152      C1153   1.415       .  A
C1152      C1168   1.451       .  S
C1153      C1154   1.415       .  A
C1154      C1157   1.449       .  S
C1155      C1158   1.410       .  A
C1155      C1162   1.411       .  A
C1156      N1173   1.157       .  T
C1157      N1175   1.157       .  T
C1158      C1159   1.410       .  A
C1158      C1163   1.451       .  S
C1159      C1160   1.415       .  A
C1159      C1165   1.452       .  S
C1160      C1161   1.415       .  A
C1161      C1162   1.412       .  A
C1161      C1164   1.451       .  S
C1162      C1166   1.450       .  S
C1163      N1170   1.157       .  T
C1164      N1171   1.157       .  T
C1165      N1169   1.157       .  T
C1166      N1172   1.157       .  T
C1167      N1176   1.157       .  T
C1168      N1174   1.157       .  T
C1177      C1178   1.411       .  A
C1177      C1182   1.409       .  A
C1177      C1195   1.451       .  S
C1178      C1183   1.497   1_554  S
C1178      C1179   1.412       .  A
C1179      C1180   1.411       .  A
C1179      C1184   1.450       .  S
C1180      C1181   1.413       .  A
C1180      C1196   1.451       .  S
C1181      C1182   1.413       .  A
C1182      C1185   1.452       .  S
C1183      C1186   1.407       .  A
C1183      C1190   1.408       .  A
C1184      N1201   1.157       .  T
C1185      N1203   1.157       .  T
C1186      C1187   1.411       .  A
C1186      C1191   1.452       .  S
C1187      C1188   1.425       .  A
C1187      C1193   1.452       .  S
C1188      C1189   1.425       .  A
C1189      C1190   1.412       .  A
C1189      C1192   1.451       .  S
C1190      C1194   1.452       .  S
C1191      N1198   1.157   1_556  T
C1192      N1199   1.158       .  T
C1193      N1197   1.158       .  T
C1194      N1200   1.157   1_556  T
C1195      N1204   1.157       .  T
C1196      N1202   1.157       .  T
C1205      C1206   1.411       .  A
C1205      C1210   1.411       .  A
C1205      C1223   1.450       .  S
C1206      C1211   1.498       .  S
C1206      C1207   1.411       .  A
C1207      C1208   1.412       .  A
C1207      C1212   1.450       .  S
C1208      C1209   1.414       .  A
C1208      C1224   1.451       .  S
C1209      C1210   1.413       .  A
C1210      C1213   1.451       .  S
C1211      C1214   1.410       .  A
C1211      C1218   1.411       .  A
C1212      N1229   1.157       .  T
C1213      N1231   1.157       .  T
C1214      C1215   1.411       .  A
C1214      C1219   1.451       .  S
C1215      C1216   1.414       .  A
C1215      C1221   1.449       .  S
C1216      C1217   1.415       .  A
C1217      C1218   1.413       .  A
C1217      C1220   1.451       .  S
C1218      C1222   1.450       .  S
C1219      N1226   1.157       .  T
C1220      N1227   1.157       .  T
C1221      N1225   1.156       .  T
C1222      N1228   1.157       .  T
C1223      N1232   1.157       .  T
C1224      N1230   1.157       .  T
C1233      C1234   1.412       .  A
C1233      C1238   1.412       .  A
C1233      C1251   1.451       .  S
C1234      C1239   1.499   1_565  S
C1234      C1235   1.412       .  A
C1235      C1236   1.410       .  A
C1235      C1240   1.451       .  S
C1236      C1237   1.414       .  A
C1236      C1252   1.452       .  S
C1237      C1238   1.414       .  A
C1238      C1241   1.451       .  S
C1239      C1242   1.408       .  A
C1239      C1246   1.408       .  A
C1240      N1257   1.157       .  T
C1241      N1259   1.157       .  T
C1242      C1243   1.412       .  A
C1242      C1247   1.452       .  S
C1243      C1244   1.422       .  A
C1243      C1249   1.450       .  S
C1244      C1245   1.424       .  A
C1245      C1246   1.413       .  A
C1245      C1248   1.452       .  S
C1246      C1250   1.452       .  S
C1247      N1254   1.157   1_545  T
C1248      N1255   1.157       .  T
C1249      N1253   1.157       .  T
C1250      N1256   1.157   1_545  T
C1251      N1260   1.157       .  T
C1252      N1258   1.157       .  T
C1261      C1262   1.411       .  A
C1261      C1266   1.412       .  A
C1261      C1279   1.450       .  S
C1262      C1267   1.499       .  S
C1262      C1263   1.411       .  A
C1263      C1264   1.412       .  A
C1263      C1268   1.450       .  S
C1264      C1265   1.416       .  A
C1264      C1280   1.451       .  S
C1265      C1266   1.415       .  A
C1266      C1269   1.451       .  S
C1267      C1270   1.411       .  A
C1267      C1274   1.411       .  A
C1268      N1285   1.157       .  T
C1269      N1287   1.157       .  T
C1270      C1271   1.412       .  A
C1270      C1275   1.450       .  S
C1271      C1272   1.415       .  A
C1271      C1277   1.451       .  S
C1272      C1273   1.415       .  A
C1273      C1274   1.412       .  A
C1273      C1276   1.449       .  S
C1274      C1278   1.451       .  S
C1275      N1282   1.157       .  T
C1276      N1283   1.157       .  T
C1277      N1281   1.157       .  T
C1278      N1284   1.157       .  T
C1279      N1288   1.157       .  T
C1280      N1286   1.157       .  T
C1289      C1290   1.410       .  A
C1289      C1294   1.411       .  A
C1289      C1307   1.451       .  S
C1290      C1295   1.495   1_565  S
C1290      C1291   1.409       .  A
C1291      C1292   1.410       .  A
C1291      C1296   1.451       .  S
C1292      C1293   1.417       .  A
C1292      C1308   1.452       .  S
C1293      C1294   1.416       .  A
C1294      C1297   1.451       .  S
C1295      C1298   1.409       .  A
C1295      C1302   1.411       .  A
C1296      N1313   1.157       .  T
C1297      N1315   1.157       .  T
C1298      C1299   1.410       .  A
C1298      C1303   1.451       .  S
C1299      C1300   1.416       .  A
C1299      C1305   1.452       .  S
C1300      C1301   1.415       .  A
C1301      C1302   1.411       .  A
C1301      C1304   1.451       .  S
C1302      C1306   1.451       .  S
C1303      N1310   1.157       .  T
C1304      N1311   1.157       .  T
C1305      N1309   1.157       .  T
C1306      N1312   1.157   1_545  T
C1307      N1316   1.157       .  T
C1308      N1314   1.157       .  T
C1317      C1318   1.411       .  A
C1317      C1322   1.412       .  A
C1317      C1335   1.450       .  S
C1318      C1323   1.497   1_554  S
C1318      C1319   1.412       .  A
C1319      C1320   1.411       .  A
C1319      C1324   1.451       .  S
C1320      C1321   1.413       .  A
C1320      C1336   1.451       .  S
C1321      C1322   1.414       .  A
C1322      C1325   1.451       .  S
C1323      C1326   1.411       .  A
C1323      C1330   1.411       .  A
C1324      N1341   1.157   1_554  T
C1325      N1343   1.157       .  T
C1326      C1327   1.411       .  A
C1326      C1331   1.450       .  S
C1327      C1328   1.416       .  A
C1327      C1333   1.452       .  S
C1328      C1329   1.415       .  A
C1329      C1330   1.410       .  A
C1329      C1332   1.451       .  S
C1330      C1334   1.451       .  S
C1331      N1338   1.157       .  T
C1332      N1339   1.157       .  T
C1333      N1337   1.157       .  T
C1334      N1340   1.157       .  T
C1335      N1344   1.157   1_554  T
C1336      N1342   1.157       .  T
C1345      C1346   1.407       .  A
C1345      C1350   1.409       .  A
C1345      C1363   1.452       .  S
C1346      C1351   1.493       .  S
C1346      C1347   1.408       .  A
C1347      C1348   1.411       .  A
C1347      C1352   1.452       .  S
C1348      C1349   1.422       .  A
C1348      C1364   1.450       .  S
C1349      C1350   1.422       .  A
C1350      C1353   1.452       .  S
C1351      C1354   1.409       .  A
C1351      C1358   1.409       .  A
C1352      N1369   1.157       .  T
C1353      N1371   1.158       .  T
C1354      C1355   1.409       .  A
C1354      C1359   1.451       .  S
C1355      C1356   1.417       .  A
C1355      C1361   1.452       .  S
C1356      C1357   1.418       .  A
C1357      C1358   1.410       .  A
C1357      C1360   1.451       .  S
C1358      C1362   1.451       .  S
C1359      N1366   1.157       .  T
C1360      N1367   1.158       .  T
C1361      N1365   1.157       .  T
C1362      N1368   1.157       .  T
C1363      N1372   1.157       .  T
C1364      N1370   1.157       .  T
C1373      C1374   1.411       .  A
C1373      C1378   1.412       .  A
C1373      C1391   1.450       .  S
C1374      C1379   1.499       .  S
C1374      C1375   1.412       .  A
C1375      C1376   1.412       .  A
C1375      C1380   1.450       .  S
C1376      C1377   1.412       .  A
C1376      C1392   1.451       .  S
C1377      C1378   1.414       .  A
C1378      C1381   1.451       .  S
C1379      C1382   1.411       .  A
C1379      C1386   1.411       .  A
C1380      N1397   1.157       .  T
C1381      N1399   1.157       .  T
C1382      C1383   1.412       .  A
C1382      C1387   1.450       .  S
C1383      C1384   1.413       .  A
C1383      C1389   1.451       .  S
C1384      C1385   1.414       .  A
C1385      C1386   1.412       .  A
C1385      C1388   1.451       .  S
C1386      C1390   1.450       .  S
C1387      N1394   1.157       .  T
C1388      N1395   1.157       .  T
C1389      N1393   1.157       .  T
C1390      N1396   1.157       .  T
C1391      N1400   1.157       .  T
C1392      N1398   1.157       .  T
C1401      C1402   1.410       .  A
C1401      C1406   1.412       .  A
C1401      C1419   1.450       .  S
C1402      C1407   1.498   1_554  S
C1402      C1403   1.410       .  A
C1403      C1404   1.411       .  A
C1403      C1408   1.451       .  S
C1404      C1405   1.416       .  A
C1404      C1420   1.451       .  S
C1405      C1406   1.416       .  A
C1406      C1409   1.451       .  S
C1407      C1410   1.410       .  A
C1407      C1414   1.410       .  A
C1408      N1425   1.157       .  T
C1409      N1427   1.157       .  T
C1410      C1411   1.411       .  A
C1410      C1415   1.451       .  S
C1411      C1412   1.415       .  A
C1411      C1417   1.449       .  S
C1412      C1413   1.417       .  A
C1413      C1414   1.413       .  A
C1413      C1416   1.451       .  S
C1414      C1418   1.450       .  S
C1415      N1422   1.157   1_556  T
C1416      N1423   1.158       .  T
C1417      N1421   1.157       .  T
C1418      N1424   1.157       .  T
C1419      N1428   1.157       .  T
C1420      N1426   1.157       .  T
C1429      C1430   1.408       .  A
C1429      C1434   1.412       .  A
C1429      C1447   1.453       .  S
C1430      C1435   1.499       .  S
C1430      C1431   1.408       .  A
C1431      C1432   1.412       .  A
C1431      C1436   1.452       .  S
C1432      C1433   1.425       .  A
C1432      C1448   1.451       .  S
C1433      C1434   1.425       .  A
C1434      C1437   1.451       .  S
C1435      C1438   1.410       .  A
C1435      C1442   1.410       .  A
C1436      N1453   1.157       .  T
C1437      N1455   1.158       .  T
C1438      C1439   1.410       .  A
C1438      C1443   1.451       .  S
C1439      C1440   1.418       .  A
C1439      C1445   1.451       .  S
C1440      C1441   1.419       .  A
C1441      C1442   1.412       .  A
C1441      C1444   1.451       .  S
C1442      C1446   1.451       .  S
C1443      N1450   1.157       .  T
C1444      N1451   1.157       .  T
C1445      N1449   1.157       .  T
C1446      N1452   1.157       .  T
C1447      N1456   1.157       .  T
C1448      N1454   1.157       .  T
C1457      C1458   1.411       .  A
C1457      C1462   1.410       .  A
C1457      C1475   1.451       .  S
C1458      C1463   1.497   1_655  S
C1458      C1459   1.411       .  A
C1459      C1460   1.411       .  A
C1459      C1464   1.451       .  S
C1460      C1461   1.413       .  A
C1460      C1476   1.451       .  S
C1461      C1462   1.413       .  A
C1462      C1465   1.452       .  S
C1463      C1466   1.407       .  A
C1463      C1470   1.407       .  A
C1464      N1481   1.157       .  T
C1465      N1483   1.157       .  T
C1466      C1467   1.412       .  A
C1466      C1471   1.452       .  S
C1467      C1468   1.425       .  A
C1467      C1473   1.451       .  S
C1468      C1469   1.425       .  A
C1469      C1470   1.412       .  A
C1469      C1472   1.451       .  S
C1470      C1474   1.452       .  S
C1471      N1478   1.157   1_455  T
C1472      N1479   1.158       .  T
C1473      N1477   1.158       .  T
C1474      N1480   1.157   1_455  T
C1475      N1484   1.157       .  T
C1476      N1482   1.157       .  T
C1485      C1486   1.412       .  A
C1485      C1490   1.412       .  A
C1485      C1503   1.450       .  S
C1486      C1491   1.498       .  S
C1486      C1487   1.412       .  A
C1487      C1488   1.410       .  A
C1487      C1492   1.451       .  S
C1488      C1489   1.412       .  A
C1488      C1504   1.452       .  S
C1489      C1490   1.412       .  A
C1490      C1493   1.451       .  S
C1491      C1494   1.411       .  A
C1491      C1498   1.411       .  A
C1492      N1509   1.157       .  T
C1493      N1511   1.157       .  T
C1494      C1495   1.413       .  A
C1494      C1499   1.450       .  S
C1495      C1496   1.415       .  A
C1495      C1501   1.451       .  S
C1496      C1497   1.415       .  A
C1497      C1498   1.410       .  A
C1497      C1500   1.451       .  S
C1498      C1502   1.451       .  S
C1499      N1506   1.157       .  T
C1500      N1507   1.157       .  T
C1501      N1505   1.157       .  T
C1502      N1508   1.157       .  T
C1503      N1512   1.157       .  T
C1504      N1510   1.157       .  T
C1513      C1514   1.407       .  A
C1513      C1518   1.414       .  A
C1513      C1531   1.452       .  S
C1514      C1519   1.499   1_655  S
C1514      C1515   1.406       .  A
C1515      C1516   1.412       .  A
C1515      C1520   1.452       .  S
C1516      C1517   1.428       .  A
C1516      C1532   1.452       .  S
C1517      C1518   1.426       .  A
C1518      C1521   1.451       .  S
C1519      C1522   1.411       .  A
C1519      C1526   1.411       .  A
C1520      N1537   1.157   1_655  T
C1521      N1539   1.158       .  T
C1522      C1523   1.412       .  A
C1522      C1527   1.450       .  S
C1523      C1524   1.413       .  A
C1523      C1529   1.450       .  S
C1524      C1525   1.413       .  A
C1525      C1526   1.411       .  A
C1525      C1528   1.451       .  S
C1526      C1530   1.450       .  S
C1527      N1534   1.157       .  T
C1528      N1535   1.157       .  T
C1529      N1533   1.157       .  T
C1530      N1536   1.157       .  T
C1531      N1540   1.157   1_655  T
C1532      N1538   1.158       .  T
C1541      C1542   1.410       .  A
C1541      C1546   1.411       .  A
C1541      C1559   1.451       .  S
C1542      C1547   1.498   1_554  S
C1542      C1543   1.410       .  A
C1543      C1544   1.411       .  A
C1543      C1548   1.450       .  S
C1544      C1545   1.416       .  A
C1544      C1560   1.451       .  S
C1545      C1546   1.416       .  A
C1546      C1549   1.451       .  S
C1547      C1550   1.410       .  A
C1547      C1554   1.410       .  A
C1548      N1565   1.157       .  T
C1549      N1567   1.157       .  T
C1550      C1551   1.412       .  A
C1550      C1555   1.450       .  S
C1551      C1552   1.416       .  A
C1551      C1557   1.451       .  S
C1552      C1553   1.416       .  A
C1553      C1554   1.412       .  A
C1553      C1556   1.449       .  S
C1554      C1558   1.451       .  S
C1555      N1562   1.157       .  T
C1556      N1563   1.157       .  T
C1557      N1561   1.157       .  T
C1558      N1564   1.157   1_556  T
C1559      N1568   1.157       .  T
C1560      N1566   1.157       .  T
C1569      C1570   1.411       .  A
C1569      C1574   1.411       .  A
C1569      C1587   1.451       .  S
C1570      C1575   1.497       .  S
C1570      C1571   1.410       .  A
C1571      C1572   1.411       .  A
C1571      C1576   1.450       .  S
C1572      C1573   1.415       .  A
C1572      C1588   1.452       .  S
C1573      C1574   1.414       .  A
C1574      C1577   1.451       .  S
C1575      C1578   1.411       .  A
C1575      C1582   1.411       .  A
C1576      N1593   1.157       .  T
C1577      N1595   1.157       .  T
C1578      C1579   1.412       .  A
C1578      C1583   1.450       .  S
C1579      C1580   1.413       .  A
C1579      C1585   1.451       .  S
C1580      C1581   1.414       .  A
C1581      C1582   1.410       .  A
C1581      C1584   1.451       .  S
C1582      C1586   1.451       .  S
C1583      N1590   1.157       .  T
C1584      N1591   1.157       .  T
C1585      N1589   1.157       .  T
C1586      N1592   1.157       .  T
C1587      N1596   1.157       .  T
C1588      N1594   1.157       .  T
C1597      C1598   1.410       .  A
C1597      C1602   1.411       .  A
C1597      C1615   1.451       .  S
C1598      C1603   1.497       .  S
C1598      C1599   1.412       .  A
C1599      C1600   1.411       .  A
C1599      C1604   1.451       .  S
C1600      C1601   1.414       .  A
C1600      C1616   1.451       .  S
C1601      C1602   1.417       .  A
C1602      C1605   1.452       .  S
C1603      C1606   1.409       .  A
C1603      C1610   1.410       .  A
C1604      N1621   1.157       .  T
C1605      N1623   1.157       .  T
C1606      C1607   1.409       .  A
C1606      C1611   1.452       .  S
C1607      C1608   1.418       .  A
C1607      C1613   1.452       .  S
C1608      C1609   1.419       .  A
C1609      C1610   1.413       .  A
C1609      C1612   1.451       .  S
C1610      C1614   1.451       .  S
C1611      N1618   1.157       .  T
C1612      N1619   1.157       .  T
C1613      N1617   1.157       .  T
C1614      N1620   1.157       .  T
C1615      N1624   1.157       .  T
C1616      N1622   1.157       .  T
C1625      C1626   1.412       .  A
C1625      C1630   1.414       .  A
C1625      C1643   1.450       .  S
C1626      C1631   1.502   1_556  S
C1626      C1627   1.412       .  A
C1627      C1628   1.413       .  A
C1627      C1632   1.451       .  S
C1628      C1629   1.415       .  A
C1628      C1644   1.451       .  S
C1629      C1630   1.415       .  A
C1630      C1633   1.451       .  S
C1631      C1634   1.410       .  A
C1631      C1638   1.411       .  A
C1632      N1649   1.157       .  T
C1633      N1651   1.157       .  T
C1634      C1635   1.413       .  A
C1634      C1639   1.451       .  S
C1635      C1636   1.418       .  A
C1635      C1641   1.450       .  S
C1636      C1637   1.419       .  A
C1637      C1638   1.414       .  A
C1637      C1640   1.451       .  S
C1638      C1642   1.451       .  S
C1639      N1646   1.157   1_554  T
C1640      N1647   1.157       .  T
C1641      N1645   1.157       .  T
C1642      N1648   1.157       .  T
C1643      N1652   1.157       .  T
C1644      N1650   1.157       .  T
C1653      C1654   1.412       .  A
C1653      C1658   1.412       .  A
C1653      C1671   1.450       .  S
C1654      C1659   1.501       .  S
C1654      C1655   1.412       .  A
C1655      C1656   1.413       .  A
C1655      C1660   1.450       .  S
C1656      C1657   1.413       .  A
C1656      C1672   1.451       .  S
C1657      C1658   1.413       .  A
C1658      C1661   1.451       .  S
C1659      C1662   1.412       .  A
C1659      C1666   1.412       .  A
C1660      N1677   1.157       .  T
C1661      N1679   1.157       .  T
C1662      C1663   1.412       .  A
C1662      C1667   1.450       .  S
C1663      C1664   1.414       .  A
C1663      C1669   1.451       .  S
C1664      C1665   1.414       .  A
C1665      C1666   1.412       .  A
C1665      C1668   1.451       .  S
C1666      C1670   1.450       .  S
C1667      N1674   1.157       .  T
C1668      N1675   1.157       .  T
C1669      N1673   1.157       .  T
C1670      N1676   1.157       .  T
C1671      N1680   1.157       .  T
C1672      N1678   1.157       .  T
C1681      C1682   1.410       .  A
C1681      C1686   1.413       .  A
C1681      C1699   1.451       .  S
C1682      C1687   1.502   1_565  S
C1682      C1683   1.410       .  A
C1683      C1684   1.413       .  A
C1683      C1688   1.451       .  S
C1684      C1685   1.419       .  A
C1684      C1700   1.451       .  S
C1685      C1686   1.418       .  A
C1686      C1689   1.451       .  S
C1687      C1690   1.412       .  A
C1687      C1694   1.412       .  A
C1688      N1705   1.157       .  T
C1689      N1707   1.157       .  T
C1690      C1691   1.413       .  A
C1690      C1695   1.450       .  S
C1691      C1692   1.414       .  A
C1691      C1697   1.451       .  S
C1692      C1693   1.414       .  A
C1693      C1694   1.413       .  A
C1693      C1696   1.451       .  S
C1694      C1698   1.450       .  S
C1695      N1702   1.157   1_545  T
C1696      N1703   1.157       .  T
C1697      N1701   1.157       .  T
C1698      N1704   1.157       .  T
C1699      N1708   1.157       .  T
C1700      N1706   1.157       .  T
C1709      C1710   1.411       .  A
C1709      C1714   1.408       .  A
C1709      C1727   1.452       .  S
C1710      C1715   1.498       .  S
C1710      C1711   1.411       .  A
C1711      C1712   1.412       .  A
C1711      C1716   1.450       .  S
C1712      C1713   1.416       .  A
C1712      C1728   1.451       .  S
C1713      C1714   1.416       .  A
C1714      C1717   1.452       .  S
C1715      C1718   1.409       .  A
C1715      C1722   1.410       .  A
C1716      N1733   1.157       .  T
C1717      N1735   1.157       .  T
C1718      C1719   1.410       .  A
C1718      C1723   1.452       .  S
C1719      C1720   1.422       .  A
C1719      C1725   1.451       .  S
C1720      C1721   1.420       .  A
C1721      C1722   1.413       .  A
C1721      C1724   1.451       .  S
C1722      C1726   1.451       .  S
C1723      N1730   1.157       .  T
C1724      N1731   1.157       .  T
C1725      N1729   1.158       .  T
C1726      N1732   1.157       .  T
C1727      N1736   1.157       .  T
C1728      N1734   1.157       .  T
C1737      C1738   1.411       .  A
C1737      C1742   1.411       .  A
C1737      C1755   1.451       .  S
C1738      C1743   1.500   1_545  S
C1738      C1739   1.411       .  A
C1739      C1740   1.412       .  A
C1739      C1744   1.451       .  S
C1740      C1741   1.417       .  A
C1740      C1756   1.452       .  S
C1741      C1742   1.413       .  A
C1742      C1745   1.448       .  S
C1743      C1746   1.408       .  A
C1743      C1750   1.409       .  A
C1744      N1761   1.157       .  T
C1745      N1763   1.156       .  T
C1746      C1747   1.412       .  A
C1746      C1751   1.452       .  S
C1747      C1748   1.426       .  A
C1747      C1753   1.451       .  S
C1748      C1749   1.425       .  A
C1749      C1750   1.413       .  A
C1749      C1752   1.451       .  S
C1750      C1754   1.452       .  S
C1751      N1758   1.157   1_565  T
C1752      N1759   1.157       .  T
C1753      N1757   1.158       .  T
C1754      N1760   1.157   1_565  T
C1755      N1764   1.157       .  T
C1756      N1762   1.158       .  T
C1765      C1766   1.411       .  A
C1765      C1770   1.411       .  A
C1765      C1783   1.451       .  S
C1766      C1771   1.497   1_554  S
C1766      C1767   1.410       .  A
C1767      C1768   1.411       .  A
C1767      C1772   1.450       .  S
C1768      C1769   1.414       .  A
C1768      C1784   1.451       .  S
C1769      C1770   1.412       .  A
C1770      C1773   1.448       .  S
C1771      C1774   1.407       .  A
C1771      C1778   1.406       .  A
C1772      N1789   1.157       .  T
C1773      N1791   1.156       .  T
C1774      C1775   1.412       .  A
C1774      C1779   1.452       .  S
C1775      C1776   1.427       .  A
C1775      C1781   1.451       .  S
C1776      C1777   1.427       .  A
C1777      C1778   1.412       .  A
C1777      C1780   1.451       .  S
C1778      C1782   1.452       .  S
C1779      N1786   1.157   1_556  T
C1780      N1787   1.158       .  T
C1781      N1785   1.157       .  T
C1782      N1788   1.157   1_556  T
C1783      N1792   1.157       .  T
C1784      N1790   1.157       .  T
C1793      C1794   1.411       .  A
C1793      C1798   1.412       .  A
C1793      C1811   1.450       .  S
C1794      C1799   1.498   1_565  S
C1794      C1795   1.411       .  A
C1795      C1796   1.412       .  A
C1795      C1800   1.451       .  S
C1796      C1797   1.415       .  A
C1796      C1812   1.451       .  S
C1797      C1798   1.415       .  A
C1798      C1801   1.451       .  S
C1799      C1802   1.410       .  A
C1799      C1806   1.410       .  A
C1800      N1817   1.157       .  T
C1801      N1819   1.157       .  T
C1802      C1803   1.412       .  A
C1802      C1807   1.451       .  S
C1803      C1804   1.418       .  A
C1803      C1809   1.451       .  S
C1804      C1805   1.417       .  A
C1805      C1806   1.413       .  A
C1805      C1808   1.450       .  S
C1806      C1810   1.451       .  S
C1807      N1814   1.157       .  T
C1808      N1815   1.157       .  T
C1809      N1813   1.157       .  T
C1810      N1816   1.157       .  T
C1811      N1820   1.157       .  T
C1812      N1818   1.157       .  T
C1821      C1822   1.412       .  A
C1821      C1826   1.410       .  A
C1821      C1839   1.451       .  S
C1822      C1827   1.497   1_455  S
C1822      C1823   1.413       .  A
C1823      C1824   1.410       .  A
C1823      C1828   1.451       .  S
C1824      C1825   1.413       .  A
C1824      C1840   1.451       .  S
C1825      C1826   1.415       .  A
C1826      C1829   1.452       .  S
C1827      C1830   1.413       .  A
C1827      C1834   1.412       .  A
C1828      N1845   1.157       .  T
C1829      N1847   1.157       .  T
C1830      C1831   1.410       .  A
C1830      C1835   1.451       .  S
C1831      C1832   1.413       .  A
C1831      C1837   1.451       .  S
C1832      C1833   1.413       .  A
C1833      C1834   1.409       .  A
C1833      C1836   1.452       .  S
C1834      C1838   1.451       .  S
C1835      N1842   1.157       .  T
C1836      N1843   1.157       .  T
C1837      N1841   1.157       .  T
C1838      N1844   1.157       .  T
C1839      N1848   1.157       .  T
C1840      N1846   1.157       .  T
C1849      C1850   1.409       .  A
C1849      C1854   1.413       .  A
C1849      C1867   1.452       .  S
C1850      C1855   1.501   1_455  S
C1850      C1851   1.409       .  A
C1851      C1852   1.414       .  A
C1851      C1856   1.451       .  S
C1852      C1853   1.423       .  A
C1852      C1868   1.451       .  S
C1853      C1854   1.424       .  A
C1854      C1857   1.451       .  S
C1855      C1858   1.412       .  A
C1855      C1862   1.412       .  A
C1856      N1873   1.157       .  T
C1857      N1875   1.158       .  T
C1858      C1859   1.412       .  A
C1858      C1863   1.450       .  S
C1859      C1860   1.414       .  A
C1859      C1865   1.451       .  S
C1860      C1861   1.413       .  A
C1861      C1862   1.411       .  A
C1861      C1864   1.451       .  S
C1862      C1866   1.451       .  S
C1863      N1870   1.157       .  T
C1864      N1871   1.157       .  T
C1865      N1869   1.157       .  T
C1866      N1872   1.157       .  T
C1867      N1876   1.157       .  T
C1868      N1874   1.157       .  T
C1877      C1878   1.408       .  A
C1877      C1882   1.413       .  A
C1877      C1895   1.451       .  S
C1878      C1883   1.498   1_565  S
C1878      C1879   1.408       .  A
C1879      C1880   1.412       .  A
C1879      C1884   1.451       .  S
C1880      C1881   1.422       .  A
C1880      C1896   1.451       .  S
C1881      C1882   1.422       .  A
C1882      C1885   1.451       .  S
C1883      C1886   1.410       .  A
C1883      C1890   1.411       .  A
C1884      N1901   1.157       .  T
C1885      N1903   1.157       .  T
C1886      C1887   1.410       .  A
C1886      C1891   1.451       .  S
C1887      C1888   1.413       .  A
C1887      C1893   1.449       .  S
C1888      C1889   1.414       .  A
C1889      C1890   1.413       .  A
C1889      C1892   1.451       .  S
C1890      C1894   1.450       .  S
C1891      N1898   1.157   1_545  T
C1892      N1899   1.157       .  T
C1893      N1897   1.156       .  T
C1894      N1900   1.157   1_545  T
C1895      N1904   1.157       .  T
C1896      N1902   1.158       .  T
C1905      C1906   1.413       .  A
C1905      C1910   1.412       .  A
C1905      C1923   1.451       .  S
C1906      C1911   1.505       .  S
C1906      C1907   1.413       .  A
C1907      C1908   1.412       .  A
C1907      C1912   1.451       .  S
C1908      C1909   1.415       .  A
C1908      C1924   1.451       .  S
C1909      C1910   1.417       .  A
C1910      C1913   1.452       .  S
C1911      C1914   1.410       .  A
C1911      C1918   1.411       .  A
C1912      N1929   1.157       .  T
C1913      N1931   1.157       .  T
C1914      C1915   1.414       .  A
C1914      C1919   1.452       .  S
C1915      C1916   1.426       .  A
C1915      C1921   1.451       .  S
C1916      C1917   1.424       .  A
C1917      C1918   1.414       .  A
C1917      C1920   1.451       .  S
C1918      C1922   1.452       .  S
C1919      N1926   1.157       .  T
C1920      N1927   1.157       .  T
C1921      N1925   1.157       .  T
C1922      N1928   1.157       .  T
C1923      N1932   1.157       .  T
C1924      N1930   1.157       .  T
C1933      C1934   1.410       .  A
C1933      C1938   1.409       .  A
C1933      C1951   1.451       .  S
C1934      C1939   1.492       .  S
C1934      C1935   1.410       .  A
C1935      C1936   1.410       .  A
C1935      C1940   1.450       .  S
C1936      C1937   1.414       .  A
C1936      C1952   1.451       .  S
C1937      C1938   1.415       .  A
C1938      C1941   1.452       .  S
C1939      C1942   1.410       .  A
C1939      C1946   1.410       .  A
C1940      N1957   1.157       .  T
C1941      N1959   1.157       .  T
C1942      C1943   1.409       .  A
C1942      C1947   1.451       .  S
C1943      C1944   1.414       .  A
C1943      C1949   1.452       .  S
C1944      C1945   1.413       .  A
C1945      C1946   1.409       .  A
C1945      C1948   1.451       .  S
C1946      C1950   1.451       .  S
C1947      N1954   1.157       .  T
C1948      N1955   1.157       .  T
C1949      N1953   1.157       .  T
C1950      N1956   1.157       .  T
C1951      N1960   1.157       .  T
C1952      N1958   1.157       .  T
C1961      C1962   1.410       .  A
C1961      C1966   1.412       .  A
C1961      C1979   1.451       .  S
C1962      C1967   1.496       .  S
C1962      C1963   1.410       .  A
C1963      C1964   1.411       .  A
C1963      C1968   1.451       .  S
C1964      C1965   1.416       .  A
C1964      C1980   1.450       .  S
C1965      C1966   1.417       .  A
C1966      C1969   1.451       .  S
C1967      C1970   1.411       .  A
C1967      C1974   1.411       .  A
C1968      N1985   1.157       .  T
C1969      N1987   1.157       .  T
C1970      C1971   1.410       .  A
C1970      C1975   1.450       .  S
C1971      C1972   1.414       .  A
C1971      C1977   1.451       .  S
C1972      C1973   1.414       .  A
C1973      C1974   1.411       .  A
C1973      C1976   1.451       .  S
C1974      C1978   1.450       .  S
C1975      N1982   1.157       .  T
C1976      N1983   1.157       .  T
C1977      N1981   1.157       .  T
C1978      N1984   1.157       .  T
C1979      N1988   1.157       .  T
C1980      N1986   1.157       .  T
C1989      C1990   1.412       .  A
C1989      C1994   1.411       .  A
C1989      C2007   1.450       .  S
C1990      C1995   1.497       .  S
C1990      C1991   1.412       .  A
C1991      C1992   1.410       .  A
C1991      C1996   1.450       .  S
C1992      C1993   1.412       .  A
C1992      C2008   1.451       .  S
C1993      C1994   1.412       .  A
C1994      C1997   1.451       .  S
C1995      C1998   1.407       .  A
C1995      C2002   1.407       .  A
C1996      N2013   1.157       .  T
C1997      N2015   1.157       .  T
C1998      C1999   1.412       .  A
C1998      C2003   1.452       .  S
C1999      C2000   1.426       .  A
C1999      C2005   1.451       .  S
C2000      C2001   1.426       .  A
C2001      C2002   1.412       .  A
C2001      C2004   1.452       .  S
C2002      C2006   1.452       .  S
C2003      N2010   1.157       .  T
C2004      N2011   1.158       .  T
C2005      N2009   1.158       .  T
C2006      N2012   1.157       .  T
C2007      N2016   1.157       .  T
C2008      N2014   1.157       .  T
C2017      C2018   1.412       .  A
C2017      C2022   1.414       .  A
C2017      C2035   1.451       .  S
C2018      C2023   1.501       .  S
C2018      C2019   1.410       .  A
C2019      C2020   1.413       .  A
C2019      C2024   1.450       .  S
C2020      C2021   1.416       .  A
C2020      C2036   1.451       .  S
C2021      C2022   1.413       .  A
C2022      C2025   1.449       .  S
C2023      C2026   1.412       .  A
C2023      C2030   1.411       .  A
C2024      N2041   1.157       .  T
C2025      N2043   1.157       .  T
C2026      C2027   1.415       .  A
C2026      C2031   1.450       .  S
C2027      C2028   1.416       .  A
C2027      C2033   1.451       .  S
C2028      C2029   1.414       .  A
C2029      C2030   1.411       .  A
C2029      C2032   1.451       .  S
C2030      C2034   1.451       .  S
C2031      N2038   1.157       .  T
C2032      N2039   1.157       .  T
C2033      N2037   1.157       .  T
C2034      N2040   1.157       .  T
C2035      N2044   1.157       .  T
C2036      N2042   1.157       .  T
C2045      C2046   1.411       .  A
C2045      C2050   1.410       .  A
C2045      C2063   1.451       .  S
C2046      C2051   1.498       .  S
C2046      C2047   1.412       .  A
C2047      C2048   1.413       .  A
C2047      C2052   1.450       .  S
C2048      C2049   1.414       .  A
C2048      C2064   1.451       .  S
C2049      C2050   1.414       .  A
C2050      C2053   1.452       .  S
C2051      C2054   1.411       .  A
C2051      C2058   1.412       .  A
C2052      N2069   1.157       .  T
C2053      N2071   1.157       .  T
C2054      C2055   1.411       .  A
C2054      C2059   1.451       .  S
C2055      C2056   1.415       .  A
C2055      C2061   1.451       .  S
C2056      C2057   1.413       .  A
C2057      C2058   1.412       .  A
C2057      C2060   1.451       .  S
C2058      C2062   1.450       .  S
C2059      N2066   1.157       .  T
C2060      N2067   1.157       .  T
C2061      N2065   1.157       .  T
C2062      N2068   1.157       .  T
C2063      N2072   1.157       .  T
C2064      N2070   1.157       .  T
C2073      C2074   1.408       .  A
C2073      C2078   1.415       .  A
C2073      C2091   1.452       .  S
C2074      C2079   1.505       .  S
C2074      C2075   1.409       .  A
C2075      C2076   1.415       .  A
C2075      C2080   1.452       .  S
C2076      C2077   1.426       .  A
C2076      C2092   1.451       .  S
C2077      C2078   1.427       .  A
C2078      C2081   1.451       .  S
C2079      C2082   1.414       .  A
C2079      C2086   1.413       .  A
C2080      N2097   1.157       .  T
C2081      N2099   1.158       .  T
C2082      C2083   1.413       .  A
C2082      C2087   1.450       .  S
C2083      C2084   1.414       .  A
C2083      C2089   1.451       .  S
C2084      C2085   1.413       .  A
C2085      C2086   1.413       .  A
C2085      C2088   1.451       .  S
C2086      C2090   1.450       .  S
C2087      N2094   1.157       .  T
C2088      N2095   1.157       .  T
C2089      N2093   1.157       .  T
C2090      N2096   1.157       .  T
C2091      N2100   1.157       .  T
C2092      N2098   1.158       .  T
C2101      C2102   1.411       .  A
C2101      C2106   1.414       .  A
C2101      C2119   1.450       .  S
C2102      C2107   1.501       .  S
C2102      C2103   1.411       .  A
C2103      C2104   1.413       .  A
C2103      C2108   1.450       .  S
C2104      C2105   1.414       .  A
C2104      C2120   1.450       .  S
C2105      C2106   1.416       .  A
C2106      C2109   1.451       .  S
C2107      C2110   1.411       .  A
C2107      C2114   1.412       .  A
C2108      N2125   1.157       .  T
C2109      N2127   1.157       .  T
C2110      C2111   1.413       .  A
C2110      C2115   1.450       .  S
C2111      C2112   1.415       .  A
C2111      C2117   1.451       .  S
C2112      C2113   1.415       .  A
C2113      C2114   1.413       .  A
C2113      C2116   1.451       .  S
C2114      C2118   1.450       .  S
C2115      N2122   1.157       .  T
C2116      N2123   1.158       .  T
C2117      N2121   1.157       .  T
C2118      N2124   1.157       .  T
C2119      N2128   1.157       .  T
C2120      N2126   1.157       .  T
C2129      C2130   1.413       .  A
C2129      C2134   1.413       .  A
C2129      C2147   1.450       .  S
C2130      C2135   1.502       .  S
C2130      C2131   1.412       .  A
C2131      C2132   1.412       .  A
C2131      C2136   1.450       .  S
C2132      C2133   1.414       .  A
C2132      C2148   1.451       .  S
C2133      C2134   1.414       .  A
C2134      C2137   1.451       .  S
C2135      C2138   1.411       .  A
C2135      C2142   1.410       .  A
C2136      N2153   1.157       .  T
C2137      N2155   1.157       .  T
C2138      C2139   1.414       .  A
C2138      C2143   1.451       .  S
C2139      C2140   1.418       .  A
C2139      C2145   1.449       .  S
C2140      C2141   1.420       .  A
C2141      C2142   1.414       .  A
C2141      C2144   1.451       .  S
C2142      C2146   1.451       .  S
C2143      N2150   1.157       .  T
C2144      N2151   1.157       .  T
C2145      N2149   1.157       .  T
C2146      N2152   1.157       .  T
C2147      N2156   1.157       .  T
C2148      N2154   1.157       .  T
C2157      C2158   1.411       .  A
C2157      C2162   1.412       .  A
C2157      C2175   1.451       .  S
C2158      C2163   1.498       .  S
C2158      C2159   1.411       .  A
C2159      C2160   1.412       .  A
C2159      C2164   1.450       .  S
C2160      C2161   1.414       .  A
C2160      C2176   1.451       .  S
C2161      C2162   1.415       .  A
C2162      C2165   1.451       .  S
C2163      C2166   1.411       .  A
C2163      C2170   1.410       .  A
C2164      N2181   1.157       .  T
C2165      N2183   1.157       .  T
C2166      C2167   1.413       .  A
C2166      C2171   1.450       .  S
C2167      C2168   1.417       .  A
C2167      C2173   1.451       .  S
C2168      C2169   1.417       .  A
C2169      C2170   1.411       .  A
C2169      C2172   1.451       .  S
C2170      C2174   1.451       .  S
C2171      N2178   1.157       .  T
C2172      N2179   1.157       .  T
C2173      N2177   1.157       .  T
C2174      N2180   1.157       .  T
C2175      N2184   1.157       .  T
C2176      N2182   1.157       .  T
C2185      C2186   1.411       .  A
C2185      C2190   1.412       .  A
C2185      C2203   1.450       .  S
C2186      C2191   1.500       .  S
C2186      C2187   1.411       .  A
C2187      C2188   1.412       .  A
C2187      C2192   1.450       .  S
C2188      C2189   1.415       .  A
C2188      C2204   1.451       .  S
C2189      C2190   1.414       .  A
C2190      C2193   1.451       .  S
C2191      C2194   1.411       .  A
C2191      C2198   1.410       .  A
C2192      N2209   1.157       .  T
C2193      N2211   1.157       .  T
C2194      C2195   1.413       .  A
C2194      C2199   1.451       .  S
C2195      C2196   1.416       .  A
C2195      C2201   1.450       .  S
C2196      C2197   1.417       .  A
C2197      C2198   1.412       .  A
C2197      C2200   1.451       .  S
C2198      C2202   1.451       .  S
C2199      N2206   1.157       .  T
C2200      N2207   1.157       .  T
C2201      N2205   1.157       .  T
C2202      N2208   1.157       .  T
C2203      N2212   1.157       .  T
C2204      N2210   1.157       .  T
C2213      C2214   1.411       .  A
C2213      C2218   1.410       .  A
C2213      C2231   1.450       .  S
C2214      C2219   1.495       .  S
C2214      C2215   1.411       .  A
C2215      C2216   1.410       .  A
C2215      C2220   1.451       .  S
C2216      C2217   1.413       .  A
C2216      C2232   1.451       .  S
C2217      C2218   1.412       .  A
C2218      C2221   1.451       .  S
C2219      C2222   1.409       .  A
C2219      C2226   1.411       .  A
C2220      N2237   1.157       .  T
C2221      N2239   1.157       .  T
C2222      C2223   1.409       .  A
C2222      C2227   1.452       .  S
C2223      C2224   1.414       .  A
C2223      C2229   1.449       .  S
C2224      C2225   1.415       .  A
C2225      C2226   1.412       .  A
C2225      C2228   1.451       .  S
C2226      C2230   1.450       .  S
C2227      N2234   1.157       .  T
C2228      N2235   1.157       .  T
C2229      N2233   1.156       .  T
C2230      N2236   1.157       .  T
C2231      N2240   1.157       .  T
C2232      N2238   1.157       .  T
C2241      C2242   1.410       .  A
C2241      C2246   1.411       .  A
C2241      C2259   1.451       .  S
C2242      C2247   1.497       .  S
C2242      C2243   1.410       .  A
C2243      C2244   1.412       .  A
C2243      C2248   1.450       .  S
C2244      C2245   1.417       .  A
C2244      C2260   1.451       .  S
C2245      C2246   1.416       .  A
C2246      C2249   1.450       .  S
C2247      C2250   1.409       .  A
C2247      C2254   1.410       .  A
C2248      N2265   1.157       .  T
C2249      N2267   1.157       .  T
C2250      C2251   1.413       .  A
C2250      C2255   1.451       .  S
C2251      C2252   1.418       .  A
C2251      C2257   1.451       .  S
C2252      C2253   1.416       .  A
C2253      C2254   1.411       .  A
C2253      C2256   1.451       .  S
C2254      C2258   1.451       .  S
C2255      N2262   1.157       .  T
C2256      N2263   1.157       .  T
C2257      N2261   1.157       .  T
C2258      N2264   1.157       .  T
C2259      N2268   1.157       .  T
C2260      N2266   1.157       .  T
C2269      C2270   1.411       .  A
C2269      C2274   1.413       .  A
C2269      C2287   1.451       .  S
C2270      C2275   1.499       .  S
C2270      C2271   1.410       .  A
C2271      C2272   1.412       .  A
C2271      C2276   1.451       .  S
C2272      C2273   1.417       .  A
C2272      C2288   1.450       .  S
C2273      C2274   1.417       .  A
C2274      C2277   1.451       .  S
C2275      C2278   1.411       .  A
C2275      C2282   1.411       .  A
C2276      N2293   1.157       .  T
C2277      N2295   1.157       .  T
C2278      C2279   1.412       .  A
C2278      C2283   1.450       .  S
C2279      C2280   1.415       .  A
C2279      C2285   1.451       .  S
C2280      C2281   1.415       .  A
C2281      C2282   1.411       .  A
C2281      C2284   1.451       .  S
C2282      C2286   1.451       .  S
C2283      N2290   1.157       .  T
C2284      N2291   1.157       .  T
C2285      N2289   1.157       .  T
C2286      N2292   1.157       .  T
C2287      N2296   1.157       .  T
C2288      N2294   1.157       .  T
C2297      C2298   1.411       .  A
C2297      C2302   1.412       .  A
C2297      C2315   1.451       .  S
C2298      C2303   1.499       .  S
C2298      C2299   1.411       .  A
C2299      C2300   1.412       .  A
C2299      C2304   1.450       .  S
C2300      C2301   1.415       .  A
C2300      C2316   1.451       .  S
C2301      C2302   1.416       .  A
C2302      C2305   1.451       .  S
C2303      C2306   1.411       .  A
C2303      C2310   1.411       .  A
C2304      N2321   1.157       .  T
C2305      N2323   1.157       .  T
C2306      C2307   1.412       .  A
C2306      C2311   1.451       .  S
C2307      C2308   1.416       .  A
C2307      C2313   1.451       .  S
C2308      C2309   1.416       .  A
C2309      C2310   1.413       .  A
C2309      C2312   1.451       .  S
C2310      C2314   1.450       .  S
C2311      N2318   1.157       .  T
C2312      N2319   1.157       .  T
C2313      N2317   1.157       .  T
C2314      N2320   1.157       .  T
C2315      N2324   1.157       .  T
C2316      N2322   1.157       .  T
C2325      C2326   1.411       .  A
C2325      C2330   1.412       .  A
C2325      C2343   1.451       .  S
C2326      C2331   1.496       .  S
C2326      C2327   1.409       .  A
C2327      C2328   1.410       .  A
C2327      C2332   1.451       .  S
C2328      C2329   1.416       .  A
C2328      C2344   1.452       .  S
C2329      C2330   1.415       .  A
C2330      C2333   1.451       .  S
C2331      C2334   1.410       .  A
C2331      C2338   1.411       .  A
C2332      N2349   1.157       .  T
C2333      N2351   1.157       .  T
C2334      C2335   1.411       .  A
C2334      C2339   1.451       .  S
C2335      C2336   1.417       .  A
C2335      C2341   1.452       .  S
C2336      C2337   1.414       .  A
C2337      C2338   1.411       .  A
C2337      C2340   1.451       .  S
C2338      C2342   1.451       .  S
C2339      N2346   1.157       .  T
C2340      N2347   1.157       .  T
C2341      N2345   1.157       .  T
C2342      N2348   1.157       .  T
C2343      N2352   1.157       .  T
C2344      N2350   1.157       .  T
C2353      C2354   1.409       .  A
C2353      C2358   1.411       .  A
C2353      C2371   1.451       .  S
C2354      C2359   1.497       .  S
C2354      C2355   1.410       .  A
C2355      C2356   1.413       .  A
C2355      C2360   1.450       .  S
C2356      C2357   1.418       .  A
C2356      C2372   1.451       .  S
C2357      C2358   1.418       .  A
C2358      C2361   1.451       .  S
C2359      C2362   1.411       .  A
C2359      C2366   1.410       .  A
C2360      N2377   1.157       .  T
C2361      N2379   1.157       .  T
C2362      C2363   1.412       .  A
C2362      C2367   1.450       .  S
C2363      C2364   1.416       .  A
C2363      C2369   1.451       .  S
C2364      C2365   1.415       .  A
C2365      C2366   1.410       .  A
C2365      C2368   1.451       .  S
C2366      C2370   1.450       .  S
C2367      N2374   1.157       .  T
C2368      N2375   1.157       .  T
C2369      N2373   1.158       .  T
C2370      N2376   1.157       .  T
C2371      N2380   1.157       .  T
C2372      N2378   1.157       .  T
C2381      C2382   1.409       .  A
C2381      C2386   1.412       .  A
C2381      C2399   1.451       .  S
C2382      C2387   1.499       .  S
C2382      C2383   1.409       .  A
C2383      C2384   1.413       .  A
C2383      C2388   1.451       .  S
C2384      C2385   1.419       .  A
C2384      C2400   1.451       .  S
C2385      C2386   1.420       .  A
C2386      C2389   1.451       .  S
C2387      C2390   1.409       .  A
C2387      C2394   1.408       .  A
C2388      N2405   1.157       .  T
C2389      N2407   1.157       .  T
C2390      C2391   1.413       .  A
C2390      C2395   1.451       .  S
C2391      C2392   1.421       .  A
C2391      C2397   1.451       .  S
C2392      C2393   1.422       .  A
C2393      C2394   1.412       .  A
C2393      C2396   1.451       .  S
C2394      C2398   1.451       .  S
C2395      N2402   1.157       .  T
C2396      N2403   1.157       .  T
C2397      N2401   1.157       .  T
C2398      N2404   1.157       .  T
C2399      N2408   1.157       .  T
C2400      N2406   1.157       .  T
C2409      C2410   1.411       .  A
C2409      C2414   1.410       .  A
C2409      C2427   1.451       .  S
C2410      C2415   1.493       .  S
C2410      C2411   1.410       .  A
C2411      C2412   1.410       .  A
C2411      C2416   1.451       .  S
C2412      C2413   1.414       .  A
C2412      C2428   1.452       .  S
C2413      C2414   1.413       .  A
C2414      C2417   1.451       .  S
C2415      C2418   1.410       .  A
C2415      C2422   1.409       .  A
C2416      N2433   1.157       .  T
C2417      N2435   1.157       .  T
C2418      C2419   1.410       .  A
C2418      C2423   1.451       .  S
C2419      C2420   1.416       .  A
C2419      C2425   1.451       .  S
C2420      C2421   1.416       .  A
C2421      C2422   1.410       .  A
C2421      C2424   1.452       .  S
C2422      C2426   1.451       .  S
C2423      N2430   1.157       .  T
C2424      N2431   1.157       .  T
C2425      N2429   1.157       .  T
C2426      N2432   1.157       .  T
C2427      N2436   1.157       .  T
C2428      N2434   1.157       .  T
C2437      C2438   1.409       .  A
C2437      C2442   1.411       .  A
C2437      C2455   1.451       .  S
C2438      C2443   1.497       .  S
C2438      C2439   1.409       .  A
C2439      C2440   1.412       .  A
C2439      C2444   1.451       .  S
C2440      C2441   1.419       .  A
C2440      C2456   1.451       .  S
C2441      C2442   1.419       .  A
C2442      C2445   1.451       .  S
C2443      C2446   1.410       .  A
C2443      C2450   1.411       .  A
C2444      N2461   1.157       .  T
C2445      N2463   1.157       .  T
C2446      C2447   1.411       .  A
C2446      C2451   1.450       .  S
C2447      C2448   1.415       .  A
C2447      C2453   1.451       .  S
C2448      C2449   1.414       .  A
C2449      C2450   1.411       .  A
C2449      C2452   1.451       .  S
C2450      C2454   1.450       .  S
C2451      N2458   1.157       .  T
C2452      N2459   1.157       .  T
C2453      N2457   1.157       .  T
C2454      N2460   1.157       .  T
C2455      N2464   1.157       .  T
C2456      N2462   1.157       .  T
C2465      C2466   1.411       .  A
C2465      C2470   1.409       .  A
C2465      C2483   1.451       .  S
C2466      C2471   1.496       .  S
C2466      C2467   1.410       .  A
C2467      C2468   1.412       .  A
C2467      C2472   1.451       .  S
C2468      C2469   1.416       .  A
C2468      C2484   1.451       .  S
C2469      C2470   1.414       .  A
C2470      C2473   1.451       .  S
C2471      C2474   1.409       .  A
C2471      C2478   1.410       .  A
C2472      N2489   1.157       .  T
C2473      N2491   1.157       .  T
C2474      C2475   1.411       .  A
C2474      C2479   1.451       .  S
C2475      C2476   1.418       .  A
C2475      C2481   1.452       .  S
C2476      C2477   1.418       .  A
C2477      C2478   1.411       .  A
C2477      C2480   1.451       .  S
C2478      C2482   1.451       .  S
C2479      N2486   1.157       .  T
C2480      N2487   1.157       .  T
C2481      N2485   1.157       .  T
C2482      N2488   1.157       .  T
C2483      N2492   1.157       .  T
C2484      N2490   1.157       .  T
C2493      C2494   1.408       .  A
C2493      C2498   1.411       .  A
C2493      C2511   1.452       .  S
C2494      C2499   1.497       .  S
C2494      C2495   1.407       .  A
C2495      C2496   1.412       .  A
C2495      C2500   1.452       .  S
C2496      C2497   1.425       .  A
C2496      C2512   1.451       .  S
C2497      C2498   1.424       .  A
C2498      C2501   1.451       .  S
C2499      C2502   1.409       .  A
C2499      C2506   1.409       .  A
C2500      N2517   1.157       .  T
C2501      N2519   1.158       .  T
C2502      C2503   1.411       .  A
C2502      C2507   1.451       .  S
C2503      C2504   1.420       .  A
C2503      C2509   1.451       .  S
C2504      C2505   1.421       .  A
C2505      C2506   1.411       .  A
C2505      C2508   1.451       .  S
C2506      C2510   1.452       .  S
C2507      N2514   1.157       .  T
C2508      N2515   1.158       .  T
C2509      N2513   1.157       .  T
C2510      N2516   1.157       .  T
C2511      N2520   1.157       .  T
C2512      N2518   1.158       .  T
C2521      C2522   1.410       .  A
C2521      C2526   1.411       .  A
C2521      C2539   1.451       .  S
C2522      C2527   1.500       .  S
C2522      C2523   1.411       .  A
C2523      C2524   1.412       .  A
C2523      C2528   1.451       .  S
C2524      C2525   1.417       .  A
C2524      C2540   1.451       .  S
C2525      C2526   1.418       .  A
C2526      C2529   1.452       .  S
C2527      C2530   1.409       .  A
C2527      C2534   1.409       .  A
C2528      N2545   1.157       .  T
C2529      N2547   1.157       .  T
C2530      C2531   1.413       .  A
C2530      C2535   1.451       .  S
C2531      C2532   1.422       .  A
C2531      C2537   1.451       .  S
C2532      C2533   1.423       .  A
C2533      C2534   1.412       .  A
C2533      C2536   1.451       .  S
C2534      C2538   1.452       .  S
C2535      N2542   1.157       .  T
C2536      N2543   1.158       .  T
C2537      N2541   1.157       .  T
C2538      N2544   1.157       .  T
C2539      N2548   1.157       .  T
C2540      N2546   1.157       .  T
C2549      C2550   1.410       .  A
C2549      C2554   1.411       .  A
C2549      C2567   1.451       .  S
C2550      C2555   1.497       .  S
C2550      C2551   1.410       .  A
C2551      C2552   1.412       .  A
C2551      C2556   1.451       .  S
C2552      C2553   1.417       .  A
C2552      C2568   1.451       .  S
C2553      C2554   1.416       .  A
C2554      C2557   1.451       .  S
C2555      C2558   1.411       .  A
C2555      C2562   1.410       .  A
C2556      N2573   1.157       .  T
C2557      N2575   1.157       .  T
C2558      C2559   1.412       .  A
C2558      C2563   1.450       .  S
C2559      C2560   1.416       .  A
C2559      C2565   1.451       .  S
C2560      C2561   1.415       .  A
C2561      C2562   1.410       .  A
C2561      C2564   1.452       .  S
C2562      C2566   1.451       .  S
C2563      N2570   1.157       .  T
C2564      N2571   1.157       .  T
C2565      N2569   1.157       .  T
C2566      N2572   1.157       .  T
C2567      N2576   1.157       .  T
C2568      N2574   1.157       .  T
C2577      C2578   1.412       .  A
C2577      C2582   1.410       .  A
C2577      C2595   1.452       .  S
C2578      C2583   1.498       .  S
C2578      C2579   1.410       .  A
C2579      C2580   1.411       .  A
C2579      C2584   1.451       .  S
C2580      C2581   1.419       .  A
C2580      C2596   1.452       .  S
C2581      C2582   1.417       .  A
C2582      C2585   1.451       .  S
C2583      C2586   1.408       .  A
C2583      C2590   1.409       .  A
C2584      N2601   1.157       .  T
C2585      N2603   1.157       .  T
C2586      C2587   1.409       .  A
C2586      C2591   1.453       .  S
C2587      C2588   1.424       .  A
C2587      C2593   1.451       .  S
C2588      C2589   1.425       .  A
C2589      C2590   1.413       .  A
C2589      C2592   1.451       .  S
C2590      C2594   1.452       .  S
C2591      N2598   1.157       .  T
C2592      N2599   1.158       .  T
C2593      N2597   1.157       .  T
C2594      N2600   1.157       .  T
C2595      N2604   1.157       .  T
C2596      N2602   1.157       .  T
C2605      C2606   1.411       .  A
C2605      C2610   1.409       .  A
C2605      C2623   1.451       .  S
C2606      C2611   1.496       .  S
C2606      C2607   1.411       .  A
C2607      C2608   1.410       .  A
C2607      C2612   1.450       .  S
C2608      C2609   1.414       .  A
C2608      C2624   1.452       .  S
C2609      C2610   1.414       .  A
C2610      C2613   1.452       .  S
C2611      C2614   1.409       .  A
C2611      C2618   1.408       .  A
C2612      N2629   1.157       .  T
C2613      N2631   1.157       .  T
C2614      C2615   1.411       .  A
C2614      C2619   1.451       .  S
C2615      C2616   1.420       .  A
C2615      C2621   1.451       .  S
C2616      C2617   1.420       .  A
C2617      C2618   1.411       .  A
C2617      C2620   1.449       .  S
C2618      C2622   1.452       .  S
C2619      N2626   1.157       .  T
C2620      N2627   1.157       .  T
C2621      N2625   1.157       .  T
C2622      N2628   1.157       .  T
C2623      N2632   1.157       .  T
C2624      N2630   1.157       .  T
C2633      C2634   1.411       .  A
C2633      C2638   1.410       .  A
C2633      C2651   1.451       .  S
C2634      C2639   1.496       .  S
C2634      C2635   1.411       .  A
C2635      C2636   1.411       .  A
C2635      C2640   1.450       .  S
C2636      C2637   1.413       .  A
C2636      C2652   1.451       .  S
C2637      C2638   1.414       .  A
C2638      C2641   1.452       .  S
C2639      C2642   1.410       .  A
C2639      C2646   1.410       .  A
C2640      N2657   1.157       .  T
C2641      N2659   1.157       .  T
C2642      C2643   1.411       .  A
C2642      C2647   1.451       .  S
C2643      C2644   1.416       .  A
C2643      C2649   1.451       .  S
C2644      C2645   1.416       .  A
C2645      C2646   1.411       .  A
C2645      C2648   1.452       .  S
C2646      C2650   1.451       .  S
C2647      N2654   1.157       .  T
C2648      N2655   1.157       .  T
C2649      N2653   1.157       .  T
C2650      N2656   1.157       .  T
C2651      N2660   1.157       .  T
C2652      N2658   1.157       .  T
C2661      C2662   1.412       .  A
C2661      C2666   1.411       .  A
C2661      C2679   1.451       .  S
C2662      C2667   1.497       .  S
C2662      C2663   1.411       .  A
C2663      C2664   1.409       .  A
C2663      C2668   1.451       .  S
C2664      C2665   1.414       .  A
C2664      C2680   1.452       .  S
C2665      C2666   1.414       .  A
C2666      C2669   1.451       .  S
C2667      C2670   1.410       .  A
C2667      C2674   1.411       .  A
C2668      N2685   1.157       .  T
C2669      N2687   1.157       .  T
C2670      C2671   1.410       .  A
C2670      C2675   1.451       .  S
C2671      C2672   1.419       .  A
C2671      C2677   1.452       .  S
C2672      C2673   1.417       .  A
C2673      C2674   1.411       .  A
C2673      C2676   1.451       .  S
C2674      C2678   1.451       .  S
C2675      N2682   1.157       .  T
C2676      N2683   1.157       .  T
C2677      N2681   1.157       .  T
C2678      N2684   1.157       .  T
C2679      N2688   1.157       .  T
C2680      N2686   1.157       .  T
C2689      C2690   1.411       .  A
C2689      C2694   1.410       .  A
C2689      C2707   1.450       .  S
C2690      C2695   1.494       .  S
C2690      C2691   1.411       .  A
C2691      C2692   1.409       .  A
C2691      C2696   1.451       .  S
C2692      C2693   1.411       .  A
C2692      C2708   1.451       .  S
C2693      C2694   1.412       .  A
C2694      C2697   1.451       .  S
C2695      C2698   1.406       .  A
C2695      C2702   1.406       .  A
C2696      N2713   1.157       .  T
C2697      N2715   1.157       .  T
C2698      C2699   1.411       .  A
C2698      C2703   1.452       .  S
C2699      C2700   1.427       .  A
C2699      C2705   1.452       .  S
C2700      C2701   1.426       .  A
C2701      C2702   1.412       .  A
C2701      C2704   1.451       .  S
C2702      C2706   1.452       .  S
C2703      N2710   1.157       .  T
C2704      N2711   1.158       .  T
C2705      N2709   1.157       .  T
C2706      N2712   1.157       .  T
C2707      N2716   1.157       .  T
C2708      N2714   1.157       .  T
C2717      C2718   1.411       .  A
C2717      C2722   1.410       .  A
C2717      C2735   1.450       .  S
C2718      C2723   1.495       .  S
C2718      C2719   1.412       .  A
C2719      C2720   1.410       .  A
C2719      C2724   1.450       .  S
C2720      C2721   1.411       .  A
C2720      C2736   1.451       .  S
C2721      C2722   1.412       .  A
C2722      C2725   1.451       .  S
C2723      C2726   1.406       .  A
C2723      C2730   1.406       .  A
C2724      N2741   1.157       .  T
C2725      N2743   1.157       .  T
C2726      C2727   1.412       .  A
C2726      C2731   1.452       .  S
C2727      C2728   1.427       .  A
C2727      C2733   1.451       .  S
C2728      C2729   1.427       .  A
C2729      C2730   1.411       .  A
C2729      C2732   1.451       .  S
C2730      C2734   1.452       .  S
C2731      N2738   1.157       .  T
C2732      N2739   1.158       .  T
C2733      N2737   1.158       .  T
C2734      N2740   1.157       .  T
C2735      N2744   1.157       .  T
C2736      N2742   1.157       .  T
C2745      C2746   1.410       .  A
C2745      C2750   1.412       .  A
C2745      C2763   1.451       .  S
C2746      C2751   1.496       .  S
C2746      C2747   1.409       .  A
C2747      C2748   1.411       .  A
C2747      C2752   1.451       .  S
C2748      C2749   1.416       .  A
C2748      C2764   1.449       .  S
C2749      C2750   1.417       .  A
C2750      C2753   1.451       .  S
C2751      C2754   1.409       .  A
C2751      C2758   1.409       .  A
C2752      N2769   1.157       .  T
C2753      N2771   1.158       .  T
C2754      C2755   1.411       .  A
C2754      C2759   1.451       .  S
C2755      C2756   1.418       .  A
C2755      C2761   1.449       .  S
C2756      C2757   1.419       .  A
C2757      C2758   1.412       .  A
C2757      C2760   1.451       .  S
C2758      C2762   1.451       .  S
C2759      N2766   1.157       .  T
C2760      N2767   1.157       .  T
C2761      N2765   1.157       .  T
C2762      N2768   1.157       .  T
C2763      N2772   1.157       .  T
C2764      N2770   1.157       .  T
C2773      C2774   1.410       .  A
C2773      C2778   1.411       .  A
C2773      C2791   1.451       .  S
C2774      C2779   1.499       .  S
C2774      C2775   1.412       .  A
C2775      C2776   1.414       .  A
C2775      C2780   1.450       .  S
C2776      C2777   1.414       .  A
C2776      C2792   1.450       .  S
C2777      C2778   1.417       .  A
C2778      C2781   1.452       .  S
C2779      C2782   1.411       .  A
C2779      C2786   1.411       .  A
C2780      N2797   1.157       .  T
C2781      N2799   1.157       .  T
C2782      C2783   1.412       .  A
C2782      C2787   1.450       .  S
C2783      C2784   1.415       .  A
C2783      C2789   1.451       .  S
C2784      C2785   1.414       .  A
C2785      C2786   1.411       .  A
C2785      C2788   1.449       .  S
C2786      C2790   1.451       .  S
C2787      N2794   1.157       .  T
C2788      N2795   1.157       .  T
C2789      N2793   1.157       .  T
C2790      N2796   1.157       .  T
C2791      N2800   1.157       .  T
C2792      N2798   1.157       .  T
C2801      C2802   1.412       .  A
C2801      C2806   1.413       .  A
C2801      C2819   1.451       .  S
C2802      C2807   1.500       .  S
C2802      C2803   1.409       .  A
C2803      C2804   1.412       .  A
C2803      C2808   1.451       .  S
C2804      C2805   1.419       .  A
C2804      C2820   1.451       .  S
C2805      C2806   1.416       .  A
C2806      C2809   1.450       .  S
C2807      C2810   1.411       .  A
C2807      C2814   1.411       .  A
C2808      N2825   1.157       .  T
C2809      N2827   1.157       .  T
C2810      C2811   1.411       .  A
C2810      C2815   1.450       .  S
C2811      C2812   1.416       .  A
C2811      C2817   1.452       .  S
C2812      C2813   1.416       .  A
C2813      C2814   1.413       .  A
C2813      C2816   1.451       .  S
C2814      C2818   1.450       .  S
C2815      N2822   1.157       .  T
C2816      N2823   1.157       .  T
C2817      N2821   1.157       .  T
C2818      N2824   1.157       .  T
C2819      N2828   1.157       .  T
C2820      N2826   1.157       .  T
C2829      C2830   1.411       .  A
C2829      C2834   1.413       .  A
C2829      C2847   1.450       .  S
C2830      C2835   1.500       .  S
C2830      C2831   1.410       .  A
C2831      C2832   1.412       .  A
C2831      C2836   1.451       .  S
C2832      C2833   1.418       .  A
C2832      C2848   1.451       .  S
C2833      C2834   1.417       .  A
C2834      C2837   1.451       .  S
C2835      C2838   1.411       .  A
C2835      C2842   1.410       .  A
C2836      N2853   1.157       .  T
C2837      N2855   1.157       .  T
C2838      C2839   1.413       .  A
C2838      C2843   1.450       .  S
C2839      C2840   1.416       .  A
C2839      C2845   1.451       .  S
C2840      C2841   1.416       .  A
C2841      C2842   1.413       .  A
C2841      C2844   1.449       .  S
C2842      C2846   1.451       .  S
C2843      N2850   1.157       .  T
C2844      N2851   1.157       .  T
C2845      N2849   1.157       .  T
C2846      N2852   1.157       .  T
C2847      N2856   1.157       .  T
C2848      N2854   1.157       .  T
C2857      C2858   1.411       .  A
C2857      C2862   1.413       .  A
C2857      C2875   1.450       .  S
C2858      C2863   1.497       .  S
C2858      C2859   1.410       .  A
C2859      C2860   1.410       .  A
C2859      C2864   1.451       .  S
C2860      C2861   1.414       .  A
C2860      C2876   1.451       .  S
C2861      C2862   1.414       .  A
C2862      C2865   1.451       .  S
C2863      C2866   1.410       .  A
C2863      C2870   1.411       .  A
C2864      N2881   1.157       .  T
C2865      N2883   1.157       .  T
C2866      C2867   1.412       .  A
C2866      C2871   1.450       .  S
C2867      C2868   1.415       .  A
C2867      C2873   1.451       .  S
C2868      C2869   1.413       .  A
C2869      C2870   1.411       .  A
C2869      C2872   1.450       .  S
C2870      C2874   1.450       .  S
C2871      N2878   1.157       .  T
C2872      N2879   1.157       .  T
C2873      N2877   1.157       .  T
C2874      N2880   1.157       .  T
C2875      N2884   1.157       .  T
C2876      N2882   1.157       .  T
C2885      C2886   1.410       .  A
C2885      C2890   1.412       .  A
C2885      C2903   1.450       .  S
C2886      C2891   1.499       .  S
C2886      C2887   1.411       .  A
C2887      C2888   1.413       .  A
C2887      C2892   1.451       .  S
C2888      C2889   1.414       .  A
C2888      C2904   1.448       .  S
C2889      C2890   1.417       .  A
C2890      C2893   1.451       .  S
C2891      C2894   1.411       .  A
C2891      C2898   1.411       .  A
C2892      N2909   1.157       .  T
C2893      N2911   1.157       .  T
C2894      C2895   1.412       .  A
C2894      C2899   1.450       .  S
C2895      C2896   1.415       .  A
C2895      C2901   1.451       .  S
C2896      C2897   1.415       .  A
C2897      C2898   1.412       .  A
C2897      C2900   1.451       .  S
C2898      C2902   1.450       .  S
C2899      N2906   1.157       .  T
C2900      N2907   1.157       .  T
C2901      N2905   1.157       .  T
C2902      N2908   1.157       .  T
C2903      N2912   1.157       .  T
C2904      N2910   1.156       .  T
C2913      C2914   1.412       .  A
C2913      C2918   1.412       .  A
C2913      C2931   1.450       .  S
C2914      C2919   1.502       .  S
C2914      C2915   1.412       .  A
C2915      C2916   1.412       .  A
C2915      C2920   1.450       .  S
C2916      C2917   1.414       .  A
C2916      C2932   1.451       .  S
C2917      C2918   1.414       .  A
C2918      C2921   1.451       .  S
C2919      C2922   1.407       .  A
C2919      C2926   1.409       .  A
C2920      N2937   1.157       .  T
C2921      N2939   1.157       .  T
C2922      C2923   1.412       .  A
C2922      C2927   1.453       .  S
C2923      C2924   1.427       .  A
C2923      C2929   1.451       .  S
C2924      C2925   1.425       .  A
C2925      C2926   1.415       .  A
C2925      C2928   1.451       .  S
C2926      C2930   1.451       .  S
C2927      N2934   1.157       .  T
C2928      N2935   1.157       .  T
C2929      N2933   1.158       .  T
C2930      N2936   1.157       .  T
C2931      N2940   1.157       .  T
C2932      N2938   1.157       .  T
C2941      C2942   1.411       .  A
C2941      C2946   1.413       .  A
C2941      C2959   1.450       .  S
C2942      C2947   1.498       .  S
C2942      C2943   1.411       .  A
C2943      C2944   1.410       .  A
C2943      C2948   1.451       .  S
C2944      C2945   1.413       .  A
C2944      C2960   1.451       .  S
C2945      C2946   1.414       .  A
C2946      C2949   1.451       .  S
C2947      C2950   1.411       .  A
C2947      C2954   1.410       .  A
C2948      N2965   1.157       .  T
C2949      N2967   1.157       .  T
C2950      C2951   1.412       .  A
C2950      C2955   1.450       .  S
C2951      C2952   1.415       .  A
C2951      C2957   1.451       .  S
C2952      C2953   1.415       .  A
C2953      C2954   1.411       .  A
C2953      C2956   1.451       .  S
C2954      C2958   1.451       .  S
C2955      N2962   1.157       .  T
C2956      N2963   1.157       .  T
C2957      N2961   1.157       .  T
C2958      N2964   1.157       .  T
C2959      N2968   1.157       .  T
C2960      N2966   1.157       .  T
C2969      C2970   1.410       .  A
C2969      C2974   1.414       .  A
C2969      C2987   1.451       .  S
C2970      C2975   1.500       .  S
C2970      C2971   1.409       .  A
C2971      C2972   1.412       .  A
C2971      C2976   1.451       .  S
C2972      C2973   1.419       .  A
C2972      C2988   1.451       .  S
C2973      C2974   1.419       .  A
C2974      C2977   1.451       .  S
C2975      C2978   1.411       .  A
C2975      C2982   1.413       .  A
C2976      N2993   1.157       .  T
C2977      N2995   1.157       .  T
C2978      C2979   1.412       .  A
C2978      C2983   1.450       .  S
C2979      C2980   1.415       .  A
C2979      C2985   1.451       .  S
C2980      C2981   1.412       .  A
C2981      C2982   1.413       .  A
C2981      C2984   1.450       .  S
C2982      C2986   1.450       .  S
C2983      N2990   1.157       .  T
C2984      N2991   1.157       .  T
C2985      N2989   1.157       .  T
C2986      N2992   1.157       .  T
C2987      N2996   1.157       .  T
C2988      N2994   1.157       .  T
C2997      C2998   1.413       .  A
C2997      C3002   1.413       .  A
C2997      C3015   1.451       .  S
C2998      C3003   1.502       .  S
C2998      C2999   1.413       .  A
C2999      C3000   1.410       .  A
C2999      C3004   1.451       .  S
C3000      C3001   1.413       .  A
C3000      C3016   1.451       .  S
C3001      C3002   1.414       .  A
C3002      C3005   1.451       .  S
C3003      C3006   1.409       .  A
C3003      C3010   1.408       .  A
C3004      N3021   1.157       .  T
C3005      N3023   1.158       .  T
C3006      C3007   1.414       .  A
C3006      C3011   1.452       .  S
C3007      C3008   1.425       .  A
C3007      C3013   1.451       .  S
C3008      C3009   1.427       .  A
C3009      C3010   1.413       .  A
C3009      C3012   1.452       .  S
C3010      C3014   1.453       .  S
C3011      N3018   1.157       .  T
C3012      N3019   1.158       .  T
C3013      N3017   1.157       .  T
C3014      N3020   1.157       .  T
C3015      N3024   1.157       .  T
C3016      N3022   1.157       .  T
C3025      C3026   1.409       .  A
C3025      C3030   1.414       .  A
C3025      C3043   1.451       .  S
C3026      C3031   1.501       .  S
C3026      C3027   1.408       .  A
C3027      C3028   1.413       .  A
C3027      C3032   1.452       .  S
C3028      C3029   1.422       .  A
C3028      C3044   1.451       .  S
C3029      C3030   1.422       .  A
C3030      C3033   1.451       .  S
C3031      C3034   1.410       .  A
C3031      C3038   1.410       .  A
C3032      N3049   1.157       .  T
C3033      N3051   1.157       .  T
C3034      C3035   1.414       .  A
C3034      C3039   1.450       .  S
C3035      C3036   1.419       .  A
C3035      C3041   1.451       .  S
C3036      C3037   1.418       .  A
C3037      C3038   1.412       .  A
C3037      C3040   1.450       .  S
C3038      C3042   1.451       .  S
C3039      N3046   1.157       .  T
C3040      N3047   1.157       .  T
C3041      N3045   1.158       .  T
C3042      N3048   1.157       .  T
C3043      N3052   1.157       .  T
C3044      N3050   1.158       .  T
C3053      C3054   1.415       .  A
C3053      C3058   1.411       .  A
C3053      C3071   1.451       .  S
C3054      C3059   1.503       .  S
C3054      C3055   1.415       .  A
C3055      C3056   1.411       .  A
C3055      C3060   1.451       .  S
C3056      C3057   1.410       .  A
C3056      C3072   1.451       .  S
C3057      C3058   1.411       .  A
C3058      C3061   1.451       .  S
C3059      C3062   1.414       .  A
C3059      C3066   1.415       .  A
C3060      N3077   1.157       .  T
C3061      N3079   1.157       .  T
C3062      C3063   1.411       .  A
C3062      C3067   1.451       .  S
C3063      C3064   1.411       .  A
C3063      C3069   1.451       .  S
C3064      C3065   1.410       .  A
C3065      C3066   1.411       .  A
C3065      C3068   1.451       .  S
C3066      C3070   1.450       .  S
C3067      N3074   1.157       .  T
C3068      N3075   1.157       .  T
C3069      N3073   1.157       .  T
C3070      N3076   1.157       .  T
C3071      N3080   1.157       .  T
C3072      N3078   1.157       .  T
C3081      C3082   1.407       .  A
C3081      C3086   1.410       .  A
C3081      C3099   1.453       .  S
C3082      C3087   1.497       .  S
C3082      C3083   1.408       .  A
C3083      C3084   1.412       .  A
C3083      C3088   1.452       .  S
C3084      C3085   1.423       .  A
C3084      C3100   1.451       .  S
C3085      C3086   1.425       .  A
C3086      C3089   1.451       .  S
C3087      C3090   1.406       .  A
C3087      C3094   1.407       .  A
C3088      N3105   1.157       .  T
C3089      N3107   1.157       .  T
C3090      C3091   1.411       .  A
C3090      C3095   1.452       .  S
C3091      C3092   1.427       .  A
C3091      C3097   1.451       .  S
C3092      C3093   1.426       .  A
C3093      C3094   1.412       .  A
C3093      C3096   1.452       .  S
C3094      C3098   1.452       .  S
C3095      N3102   1.157       .  T
C3096      N3103   1.158       .  T
C3097      N3101   1.158       .  T
C3098      N3104   1.157       .  T
C3099      N3108   1.157       .  T
C3100      N3106   1.157       .  T
C3109      C3110   1.408       .  A
C3109      C3114   1.413       .  A
C3109      C3127   1.452       .  S
C3110      C3115   1.501       .  S
C3110      C3111   1.409       .  A
C3111      C3112   1.413       .  A
C3111      C3116   1.452       .  S
C3112      C3113   1.425       .  A
C3112      C3128   1.451       .  S
C3113      C3114   1.424       .  A
C3114      C3117   1.451       .  S
C3115      C3118   1.410       .  A
C3115      C3122   1.411       .  A
C3116      N3133   1.157       .  T
C3117      N3135   1.157       .  T
C3118      C3119   1.411       .  A
C3118      C3123   1.451       .  S
C3119      C3120   1.420       .  A
C3119      C3125   1.452       .  S
C3120      C3121   1.417       .  A
C3121      C3122   1.412       .  A
C3121      C3124   1.451       .  S
C3122      C3126   1.451       .  S
C3123      N3130   1.157       .  T
C3124      N3131   1.157       .  T
C3125      N3129   1.158       .  T
C3126      N3132   1.157       .  T
C3127      N3136   1.157       .  T
C3128      N3134   1.158       .  T
C3137      C3138   1.410       .  A
C3137      C3142   1.411       .  A
C3137      C3155   1.451       .  S
C3138      C3143   1.498   1_545  S
C3138      C3139   1.411       .  A
C3139      C3140   1.413       .  A
C3139      C3144   1.450       .  S
C3140      C3141   1.414       .  A
C3140      C3156   1.450       .  S
C3141      C3142   1.417       .  A
C3142      C3145   1.452       .  S
C3143      C3146   1.410       .  A
C3143      C3150   1.411       .  A
C3144      N3161   1.157       .  T
C3145      N3163   1.157       .  T
C3146      C3147   1.411       .  A
C3146      C3151   1.451       .  S
C3147      C3148   1.416       .  A
C3147      C3153   1.451       .  S
C3148      C3149   1.416       .  A
C3149      C3150   1.412       .  A
C3149      C3152   1.451       .  S
C3150      C3154   1.450       .  S
C3151      N3158   1.157   1_565  T
C3152      N3159   1.157       .  T
C3153      N3157   1.157       .  T
C3154      N3160   1.157   1_565  T
C3155      N3164   1.157       .  T
C3156      N3162   1.157       .  T
C3165      C3166   1.411       .  A
C3165      C3170   1.412       .  A
C3165      C3183   1.451       .  S
C3166      C3171   1.499       .  S
C3166      C3167   1.411       .  A
C3167      C3168   1.413       .  A
C3167      C3172   1.450       .  S
C3168      C3169   1.414       .  A
C3168      C3184   1.451       .  S
C3169      C3170   1.414       .  A
C3170      C3173   1.451       .  S
C3171      C3174   1.412       .  A
C3171      C3178   1.411       .  A
C3172      N3189   1.157       .  T
C3173      N3191   1.157       .  T
C3174      C3175   1.413       .  A
C3174      C3179   1.450       .  S
C3175      C3176   1.415       .  A
C3175      C3181   1.451       .  S
C3176      C3177   1.413       .  A
C3177      C3178   1.411       .  A
C3177      C3180   1.451       .  S
C3178      C3182   1.450       .  S
C3179      N3186   1.157       .  T
C3180      N3187   1.157       .  T
C3181      N3185   1.158       .  T
C3182      N3188   1.157       .  T
C3183      N3192   1.157       .  T
C3184      N3190   1.157       .  T
C3193      C3194   1.410       .  A
C3193      C3198   1.412       .  A
C3193      C3211   1.451       .  S
C3194      C3199   1.498       .  S
C3194      C3195   1.410       .  A
C3195      C3196   1.411       .  A
C3195      C3200   1.451       .  S
C3196      C3197   1.417       .  A
C3196      C3212   1.451       .  S
C3197      C3198   1.416       .  A
C3198      C3201   1.451       .  S
C3199      C3202   1.411       .  A
C3199      C3206   1.412       .  A
C3200      N3217   1.157       .  T
C3201      N3219   1.157       .  T
C3202      C3203   1.410       .  A
C3202      C3207   1.451       .  S
C3203      C3204   1.414       .  A
C3203      C3209   1.451       .  S
C3204      C3205   1.414       .  A
C3205      C3206   1.412       .  A
C3205      C3208   1.451       .  S
C3206      C3210   1.450       .  S
C3207      N3214   1.157       .  T
C3208      N3215   1.157       .  T
C3209      N3213   1.157       .  T
C3210      N3216   1.157       .  T
C3211      N3220   1.157       .  T
C3212      N3218   1.157       .  T
C3221      C3222   1.411       .  A
C3221      C3226   1.412       .  A
C3221      C3239   1.450       .  S
C3222      C3227   1.499   1_455  S
C3222      C3223   1.411       .  A
C3223      C3224   1.411       .  A
C3223      C3228   1.450       .  S
C3224      C3225   1.414       .  A
C3224      C3240   1.451       .  S
C3225      C3226   1.415       .  A
C3226      C3229   1.451       .  S
C3227      C3230   1.410       .  A
C3227      C3234   1.409       .  A
C3228      N3245   1.157       .  T
C3229      N3247   1.157       .  T
C3230      C3231   1.414       .  A
C3230      C3235   1.451       .  S
C3231      C3232   1.418       .  A
C3231      C3237   1.451       .  S
C3232      C3233   1.418       .  A
C3233      C3234   1.411       .  A
C3233      C3236   1.451       .  S
C3234      C3238   1.451       .  S
C3235      N3242   1.157   1_655  T
C3236      N3243   1.157       .  T
C3237      N3241   1.157       .  T
C3238      N3244   1.157   1_655  T
C3239      N3248   1.157       .  T
C3240      N3246   1.157       .  T
C3249      C3250   1.413       .  A
C3249      C3254   1.411       .  A
C3249      C3267   1.450       .  S
C3250      C3255   1.499       .  S
C3250      C3251   1.413       .  A
C3251      C3252   1.411       .  A
C3251      C3256   1.451       .  S
C3252      C3253   1.412       .  A
C3252      C3268   1.451       .  S
C3253      C3254   1.412       .  A
C3254      C3257   1.451       .  S
C3255      C3258   1.413       .  A
C3255      C3262   1.411       .  A
C3256      N3273   1.157       .  T
C3257      N3275   1.157       .  T
C3258      C3259   1.412       .  A
C3258      C3263   1.450       .  S
C3259      C3260   1.413       .  A
C3259      C3265   1.451       .  S
C3260      C3261   1.415       .  A
C3261      C3262   1.410       .  A
C3261      C3264   1.452       .  S
C3262      C3266   1.451       .  S
C3263      N3270   1.157       .  T
C3264      N3271   1.157       .  T
C3265      N3269   1.157       .  T
C3266      N3272   1.157       .  T
C3267      N3276   1.157       .  T
C3268      N3274   1.157       .  T
C3277      C3278   1.409       .  A
C3277      C3282   1.411       .  A
C3277      C3295   1.450       .  S
C3278      C3283   1.497       .  S
C3278      C3279   1.411       .  A
C3279      C3280   1.412       .  A
C3279      C3284   1.451       .  S
C3280      C3281   1.415       .  A
C3280      C3296   1.451       .  S
C3281      C3282   1.417       .  A
C3282      C3285   1.452       .  S
C3283      C3286   1.409       .  A
C3283      C3290   1.410       .  A
C3284      N3301   1.157       .  T
C3285      N3303   1.157       .  T
C3286      C3287   1.410       .  A
C3286      C3291   1.451       .  S
C3287      C3288   1.415       .  A
C3287      C3293   1.449       .  S
C3288      C3289   1.415       .  A
C3289      C3290   1.412       .  A
C3289      C3292   1.451       .  S
C3290      C3294   1.450       .  S
C3291      N3298   1.157       .  T
C3292      N3299   1.157       .  T
C3293      N3297   1.157       .  T
C3294      N3300   1.157       .  T
C3295      N3304   1.157       .  T
C3296      N3302   1.157       .  T
C3305      C3306   1.412       .  A
C3305      C3310   1.411       .  A
C3305      C3323   1.451       .  S
C3306      C3311   1.499   1_655  S
C3306      C3307   1.413       .  A
C3307      C3308   1.412       .  A
C3307      C3312   1.451       .  S
C3308      C3309   1.413       .  A
C3308      C3324   1.451       .  S
C3309      C3310   1.413       .  A
C3310      C3313   1.451       .  S
C3311      C3314   1.411       .  A
C3311      C3318   1.411       .  A
C3312      N3329   1.157   1_655  T
C3313      N3331   1.157       .  T
C3314      C3315   1.412       .  A
C3314      C3319   1.451       .  S
C3315      C3316   1.417       .  A
C3315      C3321   1.451       .  S
C3316      C3317   1.415       .  A
C3317      C3318   1.411       .  A
C3317      C3320   1.451       .  S
C3318      C3322   1.451       .  S
C3319      N3326   1.157       .  T
C3320      N3327   1.157       .  T
C3321      N3325   1.158       .  T
C3322      N3328   1.157       .  T
C3323      N3332   1.157       .  T
C3324      N3330   1.157       .  T
C3333      C3334   1.411       .  A
C3333      C3338   1.412       .  A
C3333      C3351   1.451       .  S
C3334      C3339   1.499   1_545  S
C3334      C3335   1.410       .  A
C3335      C3336   1.412       .  A
C3335      C3340   1.450       .  S
C3336      C3337   1.417       .  A
C3336      C3352   1.451       .  S
C3337      C3338   1.417       .  A
C3338      C3341   1.451       .  S
C3339      C3342   1.411       .  A
C3339      C3346   1.410       .  A
C3340      N3357   1.157       .  T
C3341      N3359   1.157       .  T
C3342      C3343   1.413       .  A
C3342      C3347   1.450       .  S
C3343      C3344   1.414       .  A
C3343      C3349   1.451       .  S
C3344      C3345   1.415       .  A
C3345      C3346   1.411       .  A
C3345      C3348   1.451       .  S
C3346      C3350   1.450       .  S
C3347      N3354   1.157       .  T
C3348      N3355   1.157       .  T
C3349      N3353   1.157       .  T
C3350      N3356   1.157       .  T
C3351      N3360   1.157       .  T
C3352      N3358   1.157       .  T
