geometry optimzed in LAMMPS
_audit_creation_date              2020-11-30 
_audit_creation_method            'lammps2cif' 
_symmetry_space_group_name_H-M    'P1' 
_symmetry_Int_Tables_number       1 
_symmetry_cell_setting            triclinic 
loop_ 
_symmetry_equiv_pos_as_xyz 
  x,y,z 
_cell_length_a                    54.8228306 
_cell_length_b                    54.85569297459914 
_cell_length_c                    54.85418274379224 
_cell_angle_alpha                 89.97301069805256 
_cell_angle_beta                  89.91915412611827 
_cell_angle_gamma                 89.98546718285951 
loop_ 
_atom_site_label 
_atom_site_type_symbol 
_atom_site_fract_x 
_atom_site_fract_y 
_atom_site_fract_z 
_atom_site_charge 
N1          N  0.00007213  0.03803699  0.20917735    -0.36400
N2          N  0.96277414  0.00075882  0.20978451    -0.57000
N3          N  0.00079276  0.96379124  0.20769643    -0.36400
N4          N  0.03811514  0.00094842  0.21017248    -0.57000
C5          C  0.98010500  0.05142537  0.21471905     0.27200
C6          C  0.01981261  0.05153186  0.21510399     0.27200
C7          C  0.98103562  0.95014399  0.21325967     0.27200
C8          C  0.02069660  0.95027230  0.21307579     0.27200
C9          C  0.94857195  0.02040681  0.20543715     0.35800
C10         C  0.94899820  0.98098097  0.20483051     0.35800
C11         C  0.05190089  0.02088306  0.20588857     0.35800
C12         C  0.05228694  0.98147260  0.20496848     0.35800
C13         C  0.98723607  0.07367043  0.22434403    -0.21700
C14         C  0.01231286  0.07373287  0.22460284    -0.21700
C15         C  0.98847058  0.92776370  0.22238193    -0.21700
C16         C  0.01352554  0.92783623  0.22223412    -0.21700
C17         C  0.92563466  0.01309417  0.19775928    -0.22800
C18         C  0.92590851  0.98807502  0.19736405    -0.22800
C19         C  0.07497103  0.01404404  0.19804268    -0.22800
C20         C  0.07521553  0.98902908  0.19748073    -0.22800
C21         C  0.95571462  0.04475146  0.20973816    -0.18100
C22         C  0.04433670  0.04507463  0.21040618    -0.18100
C23         C  0.04508207  0.95700448  0.20827554    -0.18100
C24         C  0.95655321  0.95666655  0.20861875    -0.18100
H25         H  0.97558007  0.08843315  0.23032447     0.14800
H26         H  0.02373250  0.08857284  0.23079277     0.14800
H27         H  0.97702513  0.91280077  0.22826549     0.14800
H28         H  0.02514801  0.91296351  0.22798728     0.14800
H29         H  0.91026236  0.02453947  0.19305991     0.13100
H30         H  0.91077829  0.97646921  0.19231604     0.13100
H31         H  0.09008877  0.02581157  0.19328860     0.13100
H32         H  0.09053514  0.97773492  0.19223930     0.13100
H33         H  0.00027565  0.02188112  0.19902235     0.26300
H34         H  0.00068236  0.98012576  0.19787505     0.26300
O35         O  0.29161548  0.25072648  0.19395207    -0.78300
C36         C  0.29713067  0.29430802  0.12803971     0.82700
O37         O  0.21197764  0.28527841  0.18546182    -0.79400
O38         O  0.22544283  0.27015410  0.09912118    -0.80900
O39         O  0.26827755  0.19778898  0.12750426    -0.80700
O40         O  0.28359063  0.21203404  0.18509277    -0.79300
Zn41       Zn  0.27083863  0.27119020  0.17166409     1.55700
O42         O  0.26720943  0.22603662  0.09832273    -0.80700
Cd43       Cd  0.25695845  0.21582664  0.15863299     1.59700
Cd44       Cd  0.21498190  0.25819253  0.15915065     1.59600
O45         O  0.22602196  0.19847658  0.17130238    -0.80700
O46         O  0.25002863  0.25095060  0.15160877    -1.91200
Cd47       Cd  0.25664175  0.25761107  0.11627518     1.59900
O48         O  0.19749053  0.22739861  0.17225604    -0.80700
O49         O  0.28440960  0.28305981  0.11217148    -0.79300
C50         C  0.22829812  0.29728838  0.19685453     0.83200
C51         C  0.29510950  0.22802060  0.19737448     0.82900
O52         O  0.29350404  0.29127720  0.15080542    -0.78300
C53         C  0.27104749  0.20419081  0.10532325     0.83700
O54         O  0.25093473  0.29370129  0.19289109    -0.78400
C55         C  0.20427694  0.20543083  0.17572577     0.83800
C56         C  0.20339055  0.27310767  0.10597422     0.84100
O57         O  0.19672352  0.26924387  0.12794007    -0.80800
O58         O  0.79354323  0.25041165  0.10698425    -0.78300
C59         C  0.79665327  0.20596017  0.17199756     0.82700
O60         O  0.71299637  0.21590218  0.11525813    -0.79400
O61         O  0.72611897  0.23217106  0.20158618    -0.80900
O62         O  0.77018151  0.30365801  0.17196103    -0.80700
O63         O  0.78384851  0.28911236  0.11413580    -0.79300
Zn64       Zn  0.77171103  0.23020740  0.12847943     1.55700
O65         O  0.76939763  0.27536944  0.20113459    -0.80700
Cd66       Cd  0.75756529  0.28568641  0.14117102     1.59700
Cd67       Cd  0.71592582  0.24305859  0.14134027     1.59600
O68         O  0.72610252  0.30305372  0.12950554    -0.80700
O69         O  0.75089625  0.25054966  0.14854223    -1.91200
Cd70       Cd  0.75747446  0.24399057  0.18387878     1.59900
O71         O  0.69797410  0.27373469  0.12875885    -0.80700
O72         O  0.78438839  0.21767057  0.18792005    -0.79300
C73         C  0.72925965  0.20404129  0.10360437     0.83200
C74         C  0.79647993  0.27309658  0.10296869     0.82900
O75         O  0.79331950  0.20931294  0.14927189    -0.78300
C76         C  0.77357562  0.29712086  0.19402840     0.83700
O77         O  0.75191147  0.20794454  0.10702961    -0.78400
C78         C  0.70435379  0.29584676  0.12547163     0.83800
C79         C  0.70424773  0.22844723  0.19457077     0.84100
O80         O  0.69783589  0.23163968  0.17245853    -0.80800
O81         O  0.70950039  0.70668653  0.15033882    -0.78300
C82         C  0.77412617  0.70364823  0.19541462     0.82700
O83         O  0.71735155  0.78759093  0.18514148    -0.79400
O84         O  0.80371250  0.77373257  0.17022907    -0.80900
O85         O  0.77458163  0.73181781  0.09756629    -0.80700
O86         O  0.71715522  0.71614911  0.11169233    -0.79300
Zn87       Zn  0.73066749  0.72865597  0.17091798     1.55700
O88         O  0.80371621  0.73209277  0.12589668    -0.80700
Cd89       Cd  0.74339615  0.74323349  0.11567267     1.59700
Cd90       Cd  0.74395838  0.78472330  0.15855225     1.59600
O91         O  0.73086719  0.77472809  0.09889681    -0.80700
O92         O  0.75081261  0.74966343  0.15083149    -1.91200
Cd93       Cd  0.78607717  0.74289811  0.15742177     1.59900
O94         O  0.73182169  0.80314111  0.12792940    -0.80700
O95         O  0.78994533  0.71552422  0.18317575    -0.79300
C96         C  0.70516967  0.77130025  0.19639430     0.83200
C97         C  0.70581030  0.70353678  0.12761847     0.82900
O98         O  0.75133985  0.70721579  0.19248713    -0.78300
C99         C  0.79668509  0.72852324  0.10403847     0.83700
O100        O  0.70861173  0.74866408  0.19242420    -0.78400
C101        C  0.72762148  0.79664222  0.10601370     0.83800
C102        C  0.79689665  0.79557628  0.17436291     0.84100
O103        O  0.77492822  0.80238826  0.17094660    -0.80800
O104        O  0.29406324  0.70791723  0.14866817    -0.78300
C105        C  0.29676726  0.77226399  0.19416823     0.82700
O106        O  0.21270333  0.71591567  0.18317124    -0.79400
O107        O  0.22676476  0.80266864  0.16830125    -0.80900
O108        O  0.26982475  0.77340074  0.09631764    -0.80700
O109        O  0.28494534  0.71598647  0.11002624    -0.79300
Zn110      Zn  0.27182129  0.72890311  0.16935213     1.55700
O111        O  0.27009639  0.80220609  0.12495859    -0.80700
Cd112      Cd  0.25799119  0.74235651  0.11410933     1.59700
Cd113      Cd  0.21608273  0.74265619  0.15665323     1.59600
O114        O  0.22649732  0.73128852  0.09664445    -0.80700
O115        O  0.25119806  0.74945508  0.14928769    -1.91200
Cd116      Cd  0.25791050  0.78473436  0.15612164     1.59900
O117        O  0.19772645  0.73215891  0.12540150    -0.80700
O118        O  0.28468099  0.78828989  0.18245366    -0.79300
C119        C  0.22872748  0.70400376  0.19508507     0.83200
C120        C  0.29752440  0.70459050  0.12591492     0.82900
O121        O  0.29336160  0.74954641  0.19069540    -0.78300
C122        C  0.27361030  0.79531747  0.10303030     0.83700
O123        O  0.25148338  0.70719119  0.19132547    -0.78400
C124        C  0.20437016  0.72869861  0.10337617     0.83800
C125        C  0.20501963  0.79555934  0.17262015     0.84100
O126        O  0.19857944  0.77347222  0.16943405    -0.80800
N127        N  0.31450939  0.96351559  0.89960179    -0.36400
N128        N  0.31385849  0.00059191  0.93698546    -0.57000
N129        N  0.31458483  0.03850542  0.90005184    -0.36400
N130        N  0.31274505  0.00125174  0.86255465    -0.57000
C131        C  0.30863722  0.95013514  0.91947634     0.27200
C132        C  0.30777571  0.95049845  0.87981265     0.27200
C133        C  0.30807447  0.05141470  0.92004172     0.27200
C134        C  0.30823408  0.05187931  0.88033935     0.27200
C135        C  0.31912094  0.98086069  0.95072870     0.35800
C136        C  0.31846840  0.02025210  0.95102093     0.35800
C137        C  0.31683919  0.98160112  0.84828718     0.35800
C138        C  0.31721720  0.02103120  0.84857207     0.35800
C139        C  0.29805637  0.92834984  0.91223775    -0.21700
C140        C  0.29753795  0.92856937  0.88716530    -0.21700
C141        C  0.29759785  0.07331070  0.91293794    -0.21700
C142        C  0.29779028  0.07364411  0.88785083    -0.21700
C143        C  0.32746976  0.98799811  0.97346577    -0.22800
C144        C  0.32700296  0.01302128  0.97366958    -0.22800
C145        C  0.32408660  0.98891284  0.82519595    -0.22800
C146        C  0.32430847  0.01393858  0.82537304    -0.22800
C147        C  0.31378917  0.95667860  0.94384678    -0.18100
C148        C  0.31212188  0.95730230  0.85534700    -0.18100
C149        C  0.31253046  0.04526738  0.85581355    -0.18100
C150        C  0.31255561  0.04439045  0.94444158    -0.18100
H151        H  0.29149286  0.91375018  0.92378640     0.14800
H152        H  0.29053656  0.91416267  0.87565964     0.14800
H153        H  0.29060010  0.08761280  0.92459405     0.14800
H154        H  0.29094009  0.08821971  0.87645015     0.14800
H155        H  0.33273554  0.97638631  0.98852309     0.13100
H156        H  0.33187141  0.02456109  0.98890270     0.13100
H157        H  0.32836890  0.97744363  0.80972368     0.13100
H158        H  0.32872164  0.02558298  0.81005597     0.13100
H159        H  0.32501527  0.97931547  0.89946867     0.26300
H160        H  0.32501418  0.02265130  0.89985708     0.26300
N161        N  0.00064857  0.31500933  0.93651492    -0.36400
N162        N  0.03836145  0.31385025  0.89934678    -0.57000
N163        N  0.00130538  0.31616183  0.86146965    -0.36400
N164        N  0.96358443  0.31446979  0.89874460    -0.57000
C165        C  0.02028120  0.30881254  0.95008698     0.27200
C166        C  0.98057519  0.30942922  0.94975231     0.27200
C167        C  0.02126641  0.31046504  0.84810106     0.27200
C168        C  0.98153627  0.31061492  0.84779378     0.27200
C169        C  0.05253810  0.31694488  0.91923346     0.35800
C170        C  0.05290090  0.31755613  0.87979213     0.35800
C171        C  0.94922343  0.31846680  0.91837596     0.35800
C172        C  0.94957298  0.31866923  0.87894720     0.35800
C173        C  0.01258553  0.29935221  0.97225876    -0.21700
C174        C  0.98751942  0.29975463  0.97205119    -0.21700
C175        C  0.01410766  0.30157293  0.82555406    -0.21700
C176        C  0.98904984  0.30161090  0.82538146    -0.21700
C177        C  0.07615786  0.32274554  0.91228535    -0.22800
C178        C  0.07639609  0.32308992  0.88726916    -0.22800
C179        C  0.92603771  0.32532796  0.91103831    -0.22800
C180        C  0.92625689  0.32544651  0.88602363    -0.22800
C181        C  0.04494129  0.31247533  0.94343894    -0.18100
C182        C  0.95620052  0.31395503  0.94271594    -0.18100
C183        C  0.95691705  0.31426739  0.85466631    -0.18100
C184        C  0.04578067  0.31378302  0.85536221    -0.18100
H185        H  0.02384937  0.29286245  0.98709509     0.14800
H186        H  0.97575439  0.29365177  0.98669307     0.14800
H187        H  0.02572028  0.29553879  0.81076724     0.14800
H188        H  0.97768768  0.29560553  0.81042912     0.14800
H189        H  0.09170653  0.32592381  0.92399627     0.13100
H190        H  0.09215985  0.32656006  0.87588431     0.13100
H191        H  0.91047911  0.32940452  0.92250039     0.13100
H192        H  0.91090410  0.32965206  0.87437169     0.13100
H193        H  0.00093866  0.32489822  0.92034695     0.26300
H194        H  0.00121302  0.32545894  0.87797601     0.26300
N195        N  0.68828123  0.99953849  0.93682510    -0.36400
N196        N  0.68904280  0.03710035  0.89951104    -0.57000
N197        N  0.68692282  0.99979540  0.86175448    -0.36400
N198        N  0.68939136  0.96231723  0.89917413    -0.57000
C199        C  0.69413576  0.01936405  0.95024310     0.27200
C200        C  0.69475022  0.97971037  0.94997886     0.27200
C201        C  0.69214437  0.01975077  0.84819252     0.27200
C202        C  0.69231893  0.97998896  0.84804218     0.27200
C203        C  0.68501845  0.05114531  0.91937250     0.35800
C204        C  0.68457799  0.05134318  0.87990161     0.35800
C205        C  0.68588009  0.94802854  0.91893857     0.35800
C206        C  0.68510327  0.94813873  0.87951740     0.35800
C207        C  0.70429064  0.01206472  0.97220580    -0.21700
C208        C  0.70470944  0.98702245  0.97202598    -0.21700
C209        C  0.70068733  0.01251365  0.82549550    -0.21700
C210        C  0.70075516  0.98744392  0.82538899    -0.21700
C211        C  0.67796691  0.07436373  0.91237433    -0.22800
C212        C  0.67766541  0.07448930  0.88736700    -0.22800
C213        C  0.67920305  0.92473249  0.91183099    -0.22800
C214        C  0.67874712  0.92479064  0.88681997    -0.22800
C215        C  0.68950806  0.04381929  0.94364302    -0.18100
C216        C  0.69071229  0.95520757  0.94315458    -0.18100
C217        C  0.68902363  0.95538539  0.85512771    -0.18100
C218        C  0.68841818  0.04428080  0.85539321    -0.18100
H219        H  0.71074524  0.02357873  0.98685738     0.14800
H220        H  0.71152523  0.97551406  0.98653052     0.14800
H221        H  0.70634625  0.02406714  0.81052581     0.14800
H222        H  0.70644216  0.97602913  0.81032896     0.14800
H223        H  0.67374244  0.08969325  0.92405535     0.13100
H224        H  0.67308719  0.08994653  0.87599283     0.13100
H225        H  0.67547377  0.90920877  0.92343467     0.13100
H226        H  0.67459676  0.90931753  0.87531470     0.13100
H227        H  0.67804117  0.99951232  0.92088135     0.26300
H228        H  0.67794757  0.99970452  0.87845261     0.26300
N229        N  0.03771140  0.68463962  0.89852048    -0.36400
N230        N  0.00001838  0.68486583  0.86159273    -0.57000
N231        N  0.96266325  0.68280843  0.89941300    -0.36400
N232        N  0.00041032  0.68528879  0.93625300    -0.57000
C233        C  0.05082048  0.69049384  0.87844768     0.27200
C234        C  0.05094985  0.69166995  0.91807928     0.27200
C235        C  0.94912878  0.68890507  0.87970935     0.27200
C236        C  0.94934446  0.68855155  0.91940978     0.27200
C237        C  0.01965092  0.68096877  0.84717061     0.35800
C238        C  0.98016748  0.68081008  0.84760936     0.35800
C239        C  0.02039373  0.68272309  0.95037370     0.35800
C240        C  0.98098507  0.68132157  0.95089443     0.35800
C241        C  0.07266547  0.70119419  0.88531642    -0.21700
C242        C  0.07272797  0.70198181  0.91033844    -0.21700
C243        C  0.92692799  0.69840370  0.88732254    -0.21700
C244        C  0.92701756  0.69805066  0.91235418    -0.21700
C245        C  0.01226413  0.67427135  0.82397648    -0.22800
C246        C  0.98723260  0.67416492  0.82425205    -0.22800
C247        C  0.01364424  0.67689358  0.97404374    -0.22800
C248        C  0.98862937  0.67606909  0.97438330    -0.22800
C249        C  0.04400681  0.68555487  0.85412906    -0.18100
C250        C  0.04440543  0.68803727  0.94273797    -0.18100
C251        C  0.95652375  0.68493662  0.94387560    -0.18100
C252        C  0.95586947  0.68524558  0.85505082    -0.18100
H253        H  0.08704570  0.70785018  0.87352725     0.14800
H254        H  0.08719923  0.70932451  0.92154538     0.14800
H255        H  0.91217202  0.70504000  0.87604397     0.14800
H256        H  0.91237859  0.70433370  0.92402813     0.14800
H257        H  0.02368790  0.67032902  0.80836130     0.13100
H258        H  0.97558147  0.67006022  0.80888377     0.13100
H259        H  0.02547045  0.67414064  0.98958607     0.13100
H260        H  0.97734951  0.67261842  0.99022327     0.13100
H261        H  0.02190674  0.67415762  0.89889055     0.26300
H262        H  0.97899838  0.67316371  0.89921407     0.26300
O263        O  0.29422311  0.75004100  0.60852816    -0.78300
C264        C  0.29914230  0.70551193  0.67358893     0.82700
O265        O  0.21409633  0.71663148  0.61629617    -0.79400
O266        O  0.22827391  0.72970111  0.70331809    -0.80900
O267        O  0.27167506  0.80223416  0.67504351    -0.80700
O268        O  0.28517656  0.78868238  0.61678511    -0.79300
Zn269      Zn  0.27306216  0.72934480  0.63031416     1.55700
O270        O  0.27067992  0.77370653  0.70395068    -0.80700
Cd271      Cd  0.25915123  0.78478691  0.64402508     1.59700
Cd272      Cd  0.21734745  0.74245068  0.64363673     1.59600
O273        O  0.22764719  0.80255400  0.63325709    -0.80700
O274        O  0.25243634  0.74956062  0.65076156    -1.91200
Cd275      Cd  0.25924935  0.74257473  0.68595481     1.59900
O276        O  0.19909252  0.77366215  0.63281583    -0.80700
O277        O  0.28664084  0.71683335  0.68959170    -0.79300
C278        C  0.23010032  0.70440802  0.60465644     0.83200
C279        C  0.29727448  0.77278179  0.60487474     0.82900
O280        O  0.29554800  0.70875725  0.65085983    -0.78300
C281        C  0.27486143  0.79551967  0.69707399     0.83700
O282        O  0.25284169  0.70731289  0.60863122    -0.78400
C283        C  0.20567506  0.79575628  0.62981775     0.83800
C284        C  0.20646247  0.72568261  0.69632662     0.84100
O285        O  0.19977144  0.72940874  0.67438251    -0.80800
N286        N  0.00160935  0.96264215  0.58703462    -0.36400
N287        N  0.96322414  0.99925141  0.58617098    -0.57000
N288        N  0.00043976  0.03677573  0.58808186    -0.36400
N289        N  0.03886745  0.00020064  0.58562815    -0.57000
C290        C  0.98196236  0.94864031  0.58201043     0.27200
C291        C  0.02165398  0.94913512  0.58215158     0.27200
C292        C  0.98037743  0.05047283  0.58382333     0.27200
C293        C  0.02009078  0.05096643  0.58356640     0.27200
C294        C  0.94961255  0.97922414  0.59066816     0.35800
C295        C  0.94897392  0.01865644  0.59141201     0.35800
C296        C  0.05318962  0.98066276  0.59008993     0.35800
C297        C  0.05258457  0.02006430  0.59044603     0.35800
C298        C  0.98960355  0.92599871  0.57374169    -0.21700
C299        C  0.01468837  0.92630412  0.57386003    -0.21700
C300        C  0.98738495  0.07361942  0.57640026    -0.21700
C301        C  0.01246904  0.07395079  0.57632461    -0.21700
C302        C  0.92651488  0.98591313  0.59850907    -0.22800
C303        C  0.92611756  0.01093280  0.59900586    -0.22800
C304        C  0.07622626  0.98815131  0.59730205    -0.22800
C305        C  0.07586015  0.01314854  0.59746230    -0.22800
C306        C  0.95744666  0.95502360  0.58674744    -0.18100
C307        C  0.04595888  0.95617430  0.58694498    -0.18100
C308        C  0.04460729  0.04438110  0.58790105    -0.18100
C309        C  0.95602771  0.04323556  0.58836991    -0.18100
H310        H  0.97827480  0.91067754  0.56863241     0.14800
H311        H  0.02647082  0.91128593  0.56882541     0.14800
H312        H  0.97564929  0.08885568  0.57197237     0.14800
H313        H  0.02381695  0.08947466  0.57186546     0.14800
H314        H  0.91153090  0.97402334  0.60339364     0.13100
H315        H  0.91077012  0.02213169  0.60437381     0.13100
H316        H  0.09167040  0.97682690  0.60205749     0.13100
H317        H  0.09096196  0.02487024  0.60233699     0.13100
H318        H  0.00136459  0.97907164  0.59642159     0.26300
H319        H  0.00073405  0.01995163  0.59674260     0.26300
O320        O  0.29471065  0.29210505  0.64875231    -0.78300
C321        C  0.29637792  0.22713201  0.60304296     0.82700
O322        O  0.21448958  0.28502125  0.61383531    -0.79400
O323        O  0.22603155  0.19849939  0.63145968    -0.80900
O324        O  0.27128675  0.22706534  0.70110833    -0.80700
O325        O  0.28462487  0.28523551  0.68740837    -0.79300
Zn326      Zn  0.27294939  0.27085418  0.62835142     1.55700
O327        O  0.27053490  0.19820421  0.67255461    -0.80700
Cd328      Cd  0.25868821  0.25802707  0.68357887     1.59700
Cd329      Cd  0.21695004  0.25887081  0.64101752     1.59600
O330        O  0.22729735  0.26909690  0.70123125    -0.80700
O331        O  0.25180821  0.25108491  0.64846732    -1.91200
Cd332      Cd  0.25790011  0.21577957  0.64173039     1.59900
O333        O  0.19921278  0.27118113  0.67195300    -0.80700
O334        O  0.28367371  0.21136844  0.61447179    -0.79300
C335        C  0.23103814  0.29649839  0.60217959     0.83200
C336        C  0.29732608  0.29636734  0.67142477     0.82900
O337        O  0.29400612  0.24986576  0.60709470    -0.78300
C338        C  0.27464460  0.20506825  0.69436447     0.83700
O339        O  0.25358962  0.29272669  0.60625765    -0.78400
C340        C  0.20559253  0.27351683  0.69417900     0.83800
C341        C  0.20424138  0.20573013  0.62776567     0.84100
O342        O  0.19819703  0.22805702  0.63003912    -0.80800
O343        O  0.74992554  0.29185844  0.60598055    -0.78300
C344        C  0.70411973  0.22700871  0.60288805     0.82700
O345        O  0.71757287  0.28427151  0.68666506    -0.79400
O346        O  0.73138855  0.19678622  0.67236958    -0.80900
O347        O  0.80262641  0.22648122  0.62814159    -0.80700
O348        O  0.78864783  0.28496820  0.61575982    -0.79300
Zn349      Zn  0.72960560  0.27017545  0.62752334     1.55700
O350        O  0.77422713  0.19739784  0.62869431    -0.80700
Cd351      Cd  0.78510460  0.25719287  0.64123793     1.59700
Cd352      Cd  0.74320945  0.25674890  0.68329372     1.59600
O353        O  0.80316345  0.26747328  0.67269161    -0.80700
O354        O  0.75000393  0.24989383  0.64808462    -1.91200
Cd355      Cd  0.74306713  0.21472246  0.64114280     1.59900
O356        O  0.77454037  0.26751245  0.70153127    -0.80700
O357        O  0.71619690  0.21110019  0.61478525    -0.79300
C358        C  0.70603083  0.29649994  0.67061674     0.83200
C359        C  0.77258181  0.29632252  0.60337459     0.82900
O360        O  0.70758200  0.24976579  0.60615359    -0.78300
C361        C  0.79602369  0.20447042  0.62462715     0.83700
O362        O  0.70891815  0.29253963  0.64791100    -0.78400
C363        C  0.79659329  0.27060832  0.69477352     0.83800
C364        C  0.72730201  0.20374558  0.69419054     0.84100
O365        O  0.73048968  0.22581250  0.70077021    -0.80800
O366        O  0.70859613  0.75005091  0.60523682    -0.78300
C367        C  0.77312500  0.70349854  0.60272988     0.82700
O368        O  0.71660563  0.71554154  0.68567514    -0.79400
O369        O  0.80286042  0.73036706  0.67281673    -0.80900
O370        O  0.77530089  0.80178515  0.62838825    -0.80700
O371        O  0.71689007  0.78868655  0.61412254    -0.79300
Zn372      Zn  0.73010057  0.72954847  0.62676847     1.55700
O373        O  0.80375153  0.77272552  0.62954305    -0.80700
Cd374      Cd  0.74380237  0.78470643  0.64049693     1.59700
Cd375      Cd  0.74290203  0.74243408  0.68260318     1.59600
O376        O  0.73224492  0.80253293  0.67178103    -0.80700
O377        O  0.75040066  0.74949116  0.64758142    -1.91200
Cd378      Cd  0.78555927  0.74188634  0.64133367     1.59900
O379        O  0.73051607  0.77340238  0.70007087    -0.80700
O380        O  0.78915777  0.71483452  0.61515638    -0.79300
C381        C  0.70482431  0.70398446  0.66933772     0.83200
C382        C  0.70495732  0.77277601  0.60209650     0.82900
O383        O  0.75044059  0.70775842  0.60544011    -0.78300
C384        C  0.79727669  0.79468100  0.62545639     0.83700
O385        O  0.70834936  0.70797708  0.64673722    -0.78400
C386        C  0.72787066  0.79555405  0.69354662     0.83800
C387        C  0.79580507  0.72732894  0.69476605     0.84100
O388        O  0.77374647  0.73105328  0.70115156    -0.80800
N389        N  0.50184959  0.46229992  0.71651340    -0.36400
N390        N  0.53934660  0.49958587  0.71589273    -0.57000
N391        N  0.50127686  0.53653791  0.71401522    -0.36400
N392        N  0.46375363  0.49935008  0.71812268    -0.57000
C393        C  0.52183642  0.44863438  0.72124489     0.27200
C394        C  0.48209500  0.44843947  0.72153907     0.27200
C395        C  0.52124673  0.55048069  0.71780966     0.27200
C396        C  0.48157699  0.55033189  0.71950612     0.27200
C397        C  0.55326322  0.47977324  0.71131450     0.35800
C398        C  0.55286906  0.51915527  0.70948548     0.35800
C399        C  0.44992662  0.47945864  0.71363699     0.35800
C400        C  0.44958187  0.51891807  0.71319853     0.35800
C401        C  0.51467038  0.42585012  0.72958245    -0.21700
C402        C  0.48956167  0.42569031  0.72964943    -0.21700
C403        C  0.51419689  0.57338542  0.72583702    -0.21700
C404        C  0.48914284  0.57327232  0.72698024    -0.21700
C405        C  0.57578113  0.48681987  0.70217199    -0.22800
C406        C  0.57552945  0.51178911  0.70102503    -0.22800
C407        C  0.42678028  0.48641680  0.70624055    -0.22800
C408        C  0.42657036  0.51142299  0.70593528    -0.22800
C409        C  0.54619493  0.45545554  0.71606766    -0.18100
C410        C  0.45763461  0.45509772  0.71691954    -0.18100
C411        C  0.45699065  0.54345281  0.71584769    -0.18100
C412        C  0.54549800  0.54362129  0.71245529    -0.18100
H413        H  0.52631154  0.41069762  0.73451688     0.14800
H414        H  0.47809941  0.41041889  0.73465736     0.14800
H415        H  0.52587835  0.58870082  0.73010180     0.14800
H416        H  0.47776963  0.58850853  0.73228556     0.14800
H417        H  0.59079391  0.47521598  0.69672967     0.13100
H418        H  0.59032677  0.52319592  0.69464537     0.13100
H419        H  0.41165316  0.47471495  0.70140160     0.13100
H420        H  0.41127593  0.52273991  0.70071343     0.13100
H421        H  0.50161422  0.47878554  0.70721600     0.26300
H422        H  0.50101235  0.51982701  0.70511385     0.26300
N423        N  0.50115355  0.53658444  0.08355305    -0.36400
N424        N  0.53843131  0.49954709  0.08394414    -0.57000
N425        N  0.50026691  0.46258016  0.08741384    -0.36400
N426        N  0.46281828  0.49960995  0.08389340    -0.57000
C427        C  0.52114921  0.54990281  0.07778166     0.27200
C428        C  0.48138719  0.54990871  0.07725367     0.27200
C429        C  0.52002052  0.44877062  0.08218952     0.27200
C430        C  0.48033619  0.44877511  0.08292724     0.27200
C431        C  0.55247924  0.51925506  0.08849261     0.35800
C432        C  0.55197766  0.47986623  0.08983117     0.35800
C433        C  0.44924382  0.51976919  0.08801939     0.35800
C434        C  0.44883733  0.48031450  0.09029702     0.35800
C435        C  0.51402615  0.57182898  0.06745506    -0.21700
C436        C  0.48891949  0.57181129  0.06705447    -0.21700
C437        C  0.51258763  0.42596838  0.07422750    -0.21700
C438        C  0.48751340  0.42597337  0.07467682    -0.21700
C439        C  0.57506096  0.51204592  0.09727513    -0.22800
C440        C  0.57477932  0.48702796  0.09800277    -0.22800
C441        C  0.42647714  0.51321557  0.09693768    -0.22800
C442        C  0.42620984  0.48820209  0.09832341    -0.22800
C443        C  0.54549324  0.54351928  0.08347510    -0.18100
C444        C  0.45688940  0.54388481  0.08285913    -0.18100
C445        C  0.45597481  0.45567477  0.08783191    -0.18100
C446        C  0.54449340  0.45553072  0.08643456    -0.18100
H447        H  0.52570254  0.58649017  0.06125957     0.14800
H448        H  0.47748750  0.58651639  0.06053554     0.14800
H449        H  0.52405411  0.41076665  0.06901974     0.14800
H450        H  0.47589924  0.41079752  0.06978353     0.14800
H451        H  0.59020175  0.52354984  0.10250848     0.13100
H452        H  0.58964780  0.47543644  0.10383979     0.13100
H453        H  0.41160945  0.52515640  0.10202238     0.13100
H454        H  0.41112691  0.47712507  0.10461164     0.13100
H455        H  0.50092064  0.52094786  0.09426801     0.26300
H456        H  0.50044263  0.47923171  0.09645839     0.26300
N457        N  0.81813622  0.49925171  0.43619279    -0.36400
N458        N  0.81957730  0.46214288  0.39846411    -0.57000
N459        N  0.81823995  0.50060243  0.36193572    -0.36400
N460        N  0.82023792  0.53767590  0.39971928    -0.57000
C461        C  0.82316402  0.47917899  0.44957977     0.27200
C462        C  0.82309975  0.51884999  0.45026272     0.27200
C463        C  0.82303738  0.48089699  0.34789532     0.27200
C464        C  0.82375842  0.52063219  0.34861020     0.27200
C465        C  0.81430692  0.44803815  0.41798994     0.35800
C466        C  0.81410257  0.44874829  0.37853401     0.35800
C467        C  0.81463388  0.55104224  0.41964188     0.35800
C468        C  0.81515086  0.55185364  0.38022300     0.35800
C469        C  0.83160193  0.48610616  0.47237973    -0.21700
C470        C  0.83151420  0.51118507  0.47282493    -0.21700
C471        C  0.83180337  0.48847068  0.32541183    -0.21700
C472        C  0.83231984  0.51355040  0.32588281    -0.21700
C473        C  0.80565295  0.42554337  0.41043596    -0.22800
C474        C  0.80551854  0.42599423  0.38542874    -0.22800
C475        C  0.80615504  0.57383754  0.41280202    -0.22800
C476        C  0.80645098  0.57434468  0.38781155    -0.22800
C477        C  0.81811404  0.45492382  0.44250924    -0.18100
C478        C  0.81816951  0.54330997  0.44392505    -0.18100
C479        C  0.81920753  0.54503674  0.35571157    -0.18100
C480        C  0.81787156  0.45641858  0.35421692    -0.18100
H481        H  0.83677406  0.47430939  0.48732778     0.14800
H482        H  0.83661240  0.52248564  0.48816423     0.14800
H483        H  0.83695499  0.47711323  0.31011815     0.14800
H484        H  0.83793239  0.52524580  0.31100350     0.14800
H485        H  0.79990183  0.41041262  0.42172549     0.13100
H486        H  0.79966673  0.41126513  0.37369911     0.13100
H487        H  0.80024928  0.58853920  0.42456353     0.13100
H488        H  0.80072754  0.58950449  0.37656330     0.13100
H489        H  0.80870870  0.49955716  0.41977580     0.26300
H490        H  0.80873659  0.50044498  0.37833769     0.26300
N491        N  0.53675202  0.81607913  0.39867240    -0.36400
N492        N  0.49923670  0.81899221  0.36107965    -0.57000
N493        N  0.46250010  0.81741764  0.39915974    -0.36400
N494        N  0.49997963  0.81785451  0.43668529    -0.57000
C495        C  0.55033767  0.82099600  0.37868415     0.27200
C496        C  0.55074389  0.82089574  0.41839727     0.27200
C497        C  0.44874834  0.82326022  0.37954460     0.27200
C498        C  0.44913593  0.82257938  0.41924522     0.27200
C499        C  0.51876554  0.81318077  0.34717694     0.35800
C500        C  0.47928008  0.81427383  0.34740285     0.35800
C501        C  0.51977120  0.81223219  0.45025349     0.35800
C502        C  0.48026119  0.81244155  0.45048458     0.35800
C503        C  0.57319741  0.82917082  0.38575805    -0.21700
C504        C  0.57344311  0.82913836  0.41084646    -0.21700
C505        C  0.42647205  0.83244481  0.38723342    -0.21700
C506        C  0.42673247  0.83206621  0.41231032    -0.21700
C507        C  0.51119160  0.80499212  0.32451075    -0.22800
C508        C  0.48616441  0.80570158  0.32464885    -0.22800
C509        C  0.51261821  0.80335772  0.47280935    -0.22800
C510        C  0.48757383  0.80340482  0.47292761    -0.22800
C511        C  0.54333822  0.81617310  0.35435899    -0.18100
C512        C  0.54418127  0.81606033  0.44287595    -0.18100
C513        C  0.45582733  0.81684292  0.44348623    -0.18100
C514        C  0.45497861  0.81836921  0.35501471    -0.18100
H515        H  0.58828385  0.83421323  0.37404809     0.14800
H516        H  0.58875550  0.83415329  0.42222152     0.14800
H517        H  0.41141950  0.83836311  0.37593543     0.14800
H518        H  0.41190410  0.83766677  0.42409016     0.14800
H519        H  0.52248430  0.79898499  0.30947327     0.13100
H520        H  0.47442058  0.80030898  0.30975967     0.13100
H521        H  0.52421092  0.79736320  0.48759813     0.13100
H522        H  0.47610671  0.79745414  0.48785517     0.13100
H523        H  0.52017454  0.80689164  0.39876378     0.26300
H524        H  0.47858193  0.80737425  0.39884030     0.26300
N525        N  0.18021689  0.46444426  0.40028532    -0.36400
N526        N  0.18071413  0.50241037  0.36337468    -0.57000
N527        N  0.17746900  0.53966111  0.40101711    -0.36400
N528        N  0.17947934  0.50167385  0.43788158    -0.57000
C529        C  0.18711545  0.45159029  0.38037861     0.27200
C530        C  0.18673939  0.45124865  0.42009063     0.27200
C531        C  0.18346615  0.55334352  0.38136062     0.27200
C532        C  0.18307044  0.55289073  0.42107587     0.27200
C533        C  0.17789509  0.48272232  0.34883816     0.35800
C534        C  0.17654832  0.52216156  0.34924655     0.35800
C535        C  0.17627449  0.48170748  0.45193250     0.35800
C536        C  0.17508538  0.52111101  0.45233741     0.35800
C537        C  0.19789014  0.42989172  0.38759370    -0.21700
C538        C  0.19772952  0.42970679  0.41264750    -0.21700
C539        C  0.19258545  0.57563805  0.38901747    -0.21700
C540        C  0.19235121  0.57534593  0.41407317    -0.21700
C541        C  0.17172460  0.48997819  0.32544296    -0.22800
C542        C  0.17089157  0.51499229  0.32569705    -0.22800
C543        C  0.16942525  0.48848609  0.47531454    -0.22800
C544        C  0.16878872  0.51349277  0.47559591    -0.22800
C545        C  0.18312669  0.45851257  0.35587173    -0.18100
C546        C  0.18224689  0.45774493  0.44466655    -0.18100
C547        C  0.17938853  0.54552560  0.44552229    -0.18100
C548        C  0.18031204  0.54651480  0.35669876    -0.18100
H549        H  0.20525050  0.41570483  0.37601405     0.14800
H550        H  0.20498121  0.41533448  0.42405209     0.14800
H551        H  0.19894127  0.59053605  0.37773632     0.14800
H552        H  0.19847247  0.58998274  0.42578682     0.14800
H553        H  0.16869688  0.47848038  0.30970738     0.13100
H554        H  0.16710995  0.52659860  0.31019340     0.13100
H555        H  0.16598490  0.47668472  0.49075752     0.13100
H556        H  0.16478929  0.52479075  0.49127363     0.13100
H557        H  0.16952292  0.48010843  0.40030896     0.26300
H558        H  0.16807070  0.52319818  0.40073081     0.26300
N559        N  0.50008948  0.18183043  0.43667810    -0.36400
N560        N  0.53801059  0.18107301  0.39955005    -0.57000
N561        N  0.50016241  0.18439485  0.36254265    -0.36400
N562        N  0.46237990  0.18186963  0.39967553    -0.57000
C563        C  0.51985440  0.17646831  0.45036061     0.27200
C564        C  0.48016074  0.17699292  0.45039005     0.27200
C565        C  0.52001059  0.17982084  0.34862294     0.27200
C566        C  0.48028935  0.17975913  0.34871338     0.27200
C567        C  0.55183687  0.18546940  0.41946701     0.35800
C568        C  0.55187744  0.18690169  0.37998992     0.35800
C569        C  0.44855953  0.18666964  0.41949727     0.35800
C570        C  0.44857863  0.18754623  0.38011457     0.35800
C571        C  0.51240376  0.16793275  0.47298861    -0.21700
C572        C  0.48731600  0.16827632  0.47300857    -0.21700
C573        C  0.51268341  0.17212806  0.32569218    -0.21700
C574        C  0.48758467  0.17206359  0.32575933    -0.21700
C575        C  0.57468815  0.19377715  0.41251548    -0.22800
C576        C  0.57471463  0.19468042  0.38748995    -0.22800
C577        C  0.42581983  0.19521335  0.41250724    -0.22800
C578        C  0.42582460  0.19574564  0.38751148    -0.22800
C579        C  0.54429787  0.18140213  0.44380129    -0.18100
C580        C  0.45586330  0.18237390  0.44376990    -0.18100
C581        C  0.45586460  0.18424209  0.35566940    -0.18100
C582        C  0.54443137  0.18443267  0.35544616    -0.18100
H583        H  0.52386550  0.16258493  0.48812706     0.14800
H584        H  0.47567790  0.16323277  0.48814821     0.14800
H585        H  0.52423106  0.16743960  0.31037403     0.14800
H586        H  0.47602248  0.16733261  0.31050026     0.14800
H587        H  0.58971891  0.19884390  0.42423168     0.13100
H588        H  0.58977306  0.20055247  0.37614375     0.13100
H589        H  0.41079722  0.20053142  0.42416969     0.13100
H590        H  0.41081282  0.20155663  0.37610806     0.13100
H591        H  0.50024344  0.19147366  0.42038790     0.26300
H592        H  0.50019968  0.19326808  0.37926659     0.26300
C593        C  0.68631275  0.78066290  0.58414661    -0.03200
C594        C  0.67358057  0.76321538  0.57030340    -0.08900
C595        C  0.65594656  0.77042415  0.55341019    -0.16600
C596        C  0.65069259  0.79514974  0.55004189     0.25600
C597        C  0.66313852  0.81269606  0.56377975    -0.18200
C598        C  0.68085237  0.80551925  0.58072806    -0.07200
C599        C  0.63274277  0.80225140  0.53220558    -0.13600
C600        C  0.61773639  0.80653669  0.51669194    -0.13300
C601        C  0.59984942  0.80977040  0.49770925     0.25500
C602        C  0.58229753  0.82826869  0.49938633    -0.18700
C603        C  0.56437615  0.83059841  0.48136565    -0.07200
C604        C  0.56382749  0.81441285  0.46151582    -0.03300
C605        C  0.58168848  0.79613817  0.45976385    -0.08600
C606        C  0.59957486  0.79383051  0.47776708    -0.16200
H607        H  0.67725945  0.74393947  0.57246109     0.11900
H608        H  0.64644984  0.75667458  0.54289217     0.11200
H609        H  0.65921970  0.83189991  0.56134107     0.11100
H610        H  0.69024418  0.81940630  0.59113103     0.11700
H611        H  0.58230471  0.84069810  0.51472718     0.11700
H612        H  0.55077866  0.84483477  0.48298275     0.11700
H613        H  0.58151729  0.78345439  0.44463715     0.11800
H614        H  0.61301801  0.77942284  0.47628824     0.10600
C615        C  0.78085134  0.68494971  0.58468147    -0.03200
C616        C  0.76347047  0.67376048  0.56949554    -0.08900
C617        C  0.77060023  0.65635032  0.55235678    -0.16600
C618        C  0.79514961  0.64979252  0.55016335     0.25600
C619        C  0.81261168  0.66070321  0.56521247    -0.18200
C620        C  0.80552635  0.67820689  0.58237611    -0.07200
C621        C  0.80216589  0.63170276  0.53254693    -0.13600
C622        C  0.80658179  0.61622833  0.51760524    -0.13300
C623        C  0.81023242  0.59747258  0.49968104     0.25500
C624        C  0.82946309  0.59915771  0.48293729    -0.18700
C625        C  0.83238472  0.58126649  0.46502455    -0.07200
C626        C  0.81604129  0.56160297  0.46371451    -0.03300
C627        C  0.79698084  0.55985297  0.48073180    -0.08600
C628        C  0.79408013  0.57773559  0.49861638    -0.16200
H629        H  0.74433608  0.67850259  0.57077231     0.11900
H630        H  0.75693864  0.64797860  0.54081565     0.11200
H631        H  0.83166759  0.65568339  0.56369202     0.11100
H632        H  0.81933210  0.68640148  0.59384491    -0.03500
H633        H  0.84201720  0.61439136  0.48358065     0.11700
H634        H  0.84716040  0.58285896  0.45199322     0.11700
H635        H  0.78415542  0.54486027  0.47986746     0.11800
H636        H  0.77909595  0.57631948  0.51144069     0.10600
C637        C  0.56412395  0.56304559  0.70993208    -0.03200
C638        C  0.56276622  0.57967873  0.69053432    -0.08900
C639        C  0.58078446  0.59744208  0.68760338    -0.16600
C640        C  0.60024166  0.59874342  0.70406413     0.25600
C641        C  0.60151661  0.58238492  0.72361461    -0.18200
C642        C  0.58351056  0.56459462  0.72655417    -0.07200
C643        C  0.61909343  0.61657721  0.70051558    -0.13600
C644        C  0.63459385  0.63156779  0.69638370    -0.13300
C645        C  0.65245108  0.64958117  0.68984872     0.25500
C646        C  0.65596106  0.65544111  0.66529364    -0.18700
C647        C  0.67294688  0.67318783  0.65867481    -0.07200
C648        C  0.68670008  0.68535266  0.67657537    -0.03300
C649        C  0.68306894  0.67932404  0.70125910    -0.08600
C650        C  0.66603507  0.66150229  0.70783743    -0.16200
H651        H  0.54793640  0.57866143  0.67754586     0.11900
H652        H  0.57966850  0.61001105  0.67240102     0.11200
H653        H  0.61650406  0.58325689  0.73643529     0.11100
H654        H  0.58474617  0.55189834  0.74162975     0.11700
H655        H  0.64550165  0.64633033  0.65124252     0.11700
H656        H  0.67526690  0.67737699  0.63951747     0.11700
H657        H  0.69339651  0.68831867  0.71545983     0.11800
H658        H  0.66341629  0.65707916  0.72691353     0.10600
C659        C  0.78023889  0.31501755  0.58539144    -0.03200
C660        C  0.76264803  0.32751427  0.57149056    -0.08900
C661        C  0.76974004  0.34454586  0.55392456    -0.16600
C662        C  0.79447566  0.34941308  0.54999608     0.25600
C663        C  0.81213303  0.33741850  0.56397825    -0.18200
C664        C  0.80508044  0.32033298  0.58159629    -0.07200
C665        C  0.80153741  0.36673138  0.53157826    -0.13600
C666        C  0.80608973  0.38166048  0.51609173    -0.13300
C667        C  0.80975728  0.40019121  0.49787892     0.25500
C668        C  0.82814727  0.39775373  0.48028029    -0.18700
C669        C  0.83115766  0.41569131  0.46236811    -0.07200
C670        C  0.81570286  0.43612879  0.46187937    -0.03300
C671        C  0.79743083  0.43850665  0.47967816    -0.08600
C672        C  0.79449572  0.42064357  0.49757510    -0.16200
H673        H  0.74337342  0.32399476  0.57401084     0.11900
H674        H  0.75591195  0.35382068  0.54329412     0.11200
H675        H  0.83133599  0.34115572  0.56116611     0.11100
H676        H  0.81906689  0.31114909  0.59206700     0.11700
H677        H  0.84003550  0.38197600  0.48033378     0.11700
H678        H  0.84536957  0.41360044  0.44879305     0.11700
H679        H  0.78530316  0.45409913  0.47952255     0.11800
H680        H  0.78019120  0.42268593  0.51107168     0.10600
C681        C  0.56256729  0.18349810  0.46365275    -0.03200
C682        C  0.56052034  0.20237999  0.48080907    -0.08900
C683        C  0.57786767  0.20488735  0.49926765    -0.16600
C684        C  0.59741434  0.18852501  0.50080397     0.25600
C685        C  0.59935562  0.16942657  0.48395119    -0.18200
C686        C  0.58199104  0.16690716  0.46543607    -0.07200
C687        C  0.61594451  0.19208359  0.51904671    -0.13600
C688        C  0.63149143  0.19664732  0.53390453    -0.13300
C689        C  0.64985807  0.20399903  0.55116047     0.25500
C690        C  0.66375785  0.18659695  0.56363041    -0.18700
C691        C  0.68150057  0.19400929  0.58041613    -0.07200
C692        C  0.68556336  0.21896411  0.58492203    -0.03300
C693        C  0.67155503  0.23626417  0.57215625    -0.08600
C694        C  0.65385502  0.22881520  0.55543886    -0.16200
H695        H  0.54563015  0.21531670  0.47968595     0.11900
H696        H  0.57621279  0.21976664  0.51214887     0.11200
H697        H  0.61442425  0.15668892  0.48494877     0.11100
H698        H  0.58374565  0.15217926  0.45240885     0.11700
H699        H  0.66086121  0.16732786  0.56042141     0.11700
H700        H  0.69198194  0.18021442  0.58987868     0.11700
H701        H  0.67418594  0.25559707  0.57513226     0.11800
H702        H  0.64323873  0.24244797  0.54586168     0.10600
C703        C  0.68899562  0.31592913  0.67840875    -0.03200
C704        C  0.67946031  0.33242683  0.66122368    -0.08900
C705        C  0.66308907  0.35056486  0.66843174    -0.16600
C706        C  0.65595469  0.35242441  0.69285468     0.25600
C707        C  0.66561839  0.33636707  0.71016275    -0.18200
C708        C  0.68210833  0.31826178  0.70301696    -0.07200
C709        C  0.63792203  0.37014381  0.69984026    -0.13600
C710        C  0.62201465  0.38456959  0.70452601    -0.13300
C711        C  0.60241986  0.40154036  0.70854169     0.25500
C712        C  0.60414885  0.41921453  0.72687105    -0.18700
C713        C  0.58551104  0.43638215  0.72986074    -0.07200
C714        C  0.56506366  0.43606721  0.71443500    -0.03300
C715        C  0.56323458  0.41799184  0.69642261    -0.08600
C716        C  0.58181023  0.40080506  0.69351862    -0.16200
H717        H  0.68458116  0.33128788  0.64218239     0.11900
H718        H  0.65573854  0.36293040  0.65489289     0.11200
H719        H  0.66017679  0.33764197  0.72911406     0.11100
H720        H  0.68917372  0.30588935  0.71667984     0.11700
H721        H  0.62002639  0.41994069  0.73858391     0.11700
H722        H  0.58721300  0.45021925  0.74383375     0.11700
H723        H  0.54766619  0.41755943  0.68429314     0.11800
H724        H  0.58030288  0.38720857  0.67927870     0.10600
C725        C  0.43731379  0.18432018  0.46333236    -0.03200
C726        C  0.43876490  0.20335646  0.48033989    -0.08900
C727        C  0.42076274  0.20600578  0.49816181    -0.16600
C728        C  0.40121814  0.18961468  0.49915797     0.25600
C729        C  0.39980804  0.17043141  0.48239212    -0.18200
C730        C  0.41781651  0.16777156  0.46452498    -0.07200
C731        C  0.38237486  0.19297125  0.51704528    -0.13600
C732        C  0.36686727  0.19726009  0.53199220    -0.13300
C733        C  0.34890100  0.20440336  0.54966420     0.25500
C734        C  0.33661208  0.18689882  0.56360947    -0.18700
C735        C  0.31937512  0.19418354  0.58098075    -0.07200
C736        C  0.31434583  0.21908832  0.58458814    -0.03300
C737        C  0.32680260  0.23647270  0.57039476    -0.08600
C738        C  0.34392310  0.22915491  0.55306115    -0.16200
H739        H  0.45364716  0.21632108  0.47954399     0.11900
H740        H  0.42195001  0.22095803  0.51100658     0.11200
H741        H  0.38471031  0.15770608  0.48299734     0.11100
H742        H  0.41647381  0.15301926  0.45148005     0.11700
H743        H  0.34039899  0.16767546  0.56111287     0.11700
H744        H  0.31012443  0.18037228  0.59164898     0.11700
H745        H  0.32333748  0.25577678  0.57265075     0.11800
H746        H  0.35335366  0.24283371  0.54235008     0.10600
C747        C  0.18590266  0.43896374  0.46386072    -0.03200
C748        C  0.20393643  0.44223693  0.48174092    -0.08900
C749        C  0.20806328  0.42424189  0.49927501    -0.16600
C750        C  0.19435381  0.40272329  0.49899165     0.25600
C751        C  0.17624377  0.39940222  0.48133005    -0.18200
C752        C  0.17197799  0.41747411  0.46386787    -0.07200
C753        C  0.19934232  0.38383539  0.51645297    -0.13600
C754        C  0.20424960  0.36812736  0.53099235    -0.13300
C755        C  0.21090550  0.34975748  0.54845200     0.25500
C756        C  0.19293596  0.33543308  0.55956705    -0.18700
C757        C  0.19943862  0.31800643  0.57700462    -0.07200
C758        C  0.22404300  0.31468101  0.58348851    -0.03300
C759        C  0.24198479  0.32901572  0.57197705    -0.08600
C760        C  0.23542854  0.34644410  0.55460903    -0.16200
H761        H  0.21496773  0.45861628  0.48191234     0.11900
H762        H  0.22214341  0.42696659  0.51284493     0.11200
H763        H  0.16558212  0.38278141  0.48093815     0.11100
H764        H  0.15803730  0.41463627  0.45018982     0.11700
H765        H  0.17389650  0.33783758  0.55487305     0.11700
H766        H  0.18521143  0.30719840  0.58543070     0.11700
H767        H  0.26108893  0.32692169  0.57651451     0.11800
H768        H  0.24947834  0.35743890  0.54609088     0.10600
C769        C  0.43927843  0.43542862  0.71447491    -0.03200
C770        C  0.42114743  0.43218902  0.73226902    -0.08900
C771        C  0.40314886  0.41439577  0.72914650    -0.16600
C772        C  0.40313744  0.39979349  0.70820402     0.25600
C773        C  0.42133500  0.40286048  0.69051862    -0.18200
C774        C  0.43937192  0.42056523  0.69366610    -0.07200
C775        C  0.38425486  0.38196670  0.70453464    -0.13600
C776        C  0.36866737  0.36708452  0.70025675    -0.13300
C777        C  0.35062126  0.34936329  0.69334185     0.25500
C778        C  0.34949166  0.34152664  0.66912449    -0.18700
C779        C  0.33211661  0.32435017  0.66205713    -0.07200
C780        C  0.31561729  0.31464525  0.67916749    -0.03300
C781        C  0.31686734  0.32260738  0.70353299    -0.08600
C782        C  0.33426135  0.33992157  0.71055275    -0.16200
H783        H  0.42083968  0.44359947  0.74837294     0.11900
H784        H  0.38913340  0.41218735  0.74291171     0.11200
H785        H  0.42145001  0.39171726  0.67421404     0.11100
H786        H  0.45317697  0.42298791  0.67972557     0.11700
H787        H  0.36207641  0.34870138  0.65566648     0.11700
H788        H  0.33171488  0.31858129  0.64318520     0.11700
H789        H  0.30436974  0.31555280  0.71711494     0.11800
H790        H  0.33496287  0.34591022  0.72935681     0.10600
C791        C  0.81593085  0.81250980  0.61752349    -0.03200
C792        C  0.80902693  0.83538555  0.60818265    -0.08900
C793        C  0.82673283  0.85252376  0.60159642    -0.16600
C794        C  0.85151135  0.84706230  0.60437094     0.25600
C795        C  0.85855500  0.82429675  0.61345426    -0.18200
C796        C  0.84090683  0.80708284  0.61990649    -0.07200
C797        C  0.86972377  0.86507795  0.59876561    -0.13600
C798        C  0.88522762  0.88023828  0.59522042    -0.13300
C799        C  0.90385244  0.89847983  0.59245109     0.25500
C800        C  0.92177334  0.90103898  0.61042942    -0.18700
C801        C  0.93941001  0.91928638  0.60835312    -0.07200
C802        C  0.93918869  0.93519169  0.58832461    -0.03300
C803        C  0.92138250  0.93242945  0.57017963    -0.08600
C804        C  0.90377694  0.91408948  0.57222966    -0.16200
H805        H  0.78995840  0.84007772  0.60606942     0.11900
H806        H  0.82109445  0.87012481  0.59462293     0.11200
H807        H  0.87768936  0.81994653  0.61580422     0.11100
H808        H  0.84681902  0.78971090  0.62719349     0.11700
H809        H  0.92196335  0.88908364  0.62615736     0.11700
H810        H  0.95304814  0.92125355  0.62248614     0.11700
H811        H  0.92107010  0.94456454  0.55460262     0.11800
H812        H  0.88998854  0.91224642  0.55822408     0.10600
C813        C  0.81433502  0.18649919  0.61614192    -0.03200
C814        C  0.80762770  0.16211506  0.61182107    -0.08900
C815        C  0.82521688  0.14482614  0.60536163    -0.16600
C816        C  0.84970476  0.15164639  0.60310947     0.25600
C817        C  0.85649279  0.17594597  0.60682517    -0.18200
C818        C  0.83893839  0.19328618  0.61325711    -0.07200
C819        C  0.86799490  0.13347447  0.59824655    -0.13600
C820        C  0.88332443  0.11796546  0.59546657    -0.13300
C821        C  0.90164002  0.09928740  0.59345075     0.25500
C822        C  0.92029617  0.09788976  0.61080485    -0.18700
C823        C  0.93794260  0.07958173  0.60916581    -0.07200
C824        C  0.93707463  0.06248506  0.59014974    -0.03300
C825        C  0.91832619  0.06392678  0.57279387    -0.08600
C826        C  0.90066900  0.08226378  0.57445277    -0.16200
H827        H  0.78886539  0.15627970  0.61383951     0.11900
H828        H  0.81978137  0.12604535  0.60257262     0.11200
H829        H  0.87541850  0.18140369  0.60519508     0.11100
H830        H  0.84473347  0.21188165  0.61644945     0.11700
H831        H  0.92116588  0.11091562  0.62562037     0.11700
H832        H  0.95227589  0.07868235  0.62270903     0.11700
H833        H  0.91745730  0.05090232  0.55798744     0.11800
H834        H  0.88627361  0.08315052  0.56097168     0.10600
C835        C  0.06267561  0.06413592  0.59110242    -0.03200
C836        C  0.06307713  0.07734871  0.61297562    -0.08900
C837        C  0.08053847  0.09549704  0.61660960    -0.16600
C838        C  0.09764261  0.10064398  0.59835395     0.25600
C839        C  0.09724431  0.08755802  0.57642274    -0.18200
C840        C  0.07982210  0.06929791  0.57281013    -0.07200
C841        C  0.11569628  0.11920487  0.60230512    -0.13600
C842        C  0.13087171  0.13460655  0.60610724    -0.13300
C843        C  0.14926798  0.15259800  0.61101736     0.25500
C844        C  0.14296370  0.17724381  0.61294041    -0.18700
C845        C  0.16088543  0.19464911  0.61801375    -0.07200
C846        C  0.18535752  0.18756450  0.62126095    -0.03300
C847        C  0.19147413  0.16273267  0.61915684    -0.08600
C848        C  0.17353621  0.14539643  0.61408876    -0.16200
H849        H  0.05001742  0.07339308  0.62727721     0.11900
H850        H  0.08075872  0.10545007  0.63366398     0.11200
H851        H  0.11044432  0.09138838  0.56221328     0.11100
H852        H  0.07972262  0.05913946  0.55588501     0.11700
H853        H  0.12419463  0.18298756  0.61064549     0.11700
H854        H  0.15553375  0.21358441  0.61962072     0.11700
H855        H  0.21009133  0.15663240  0.62164312     0.11800
H856        H  0.17858356  0.12634853  0.61268794     0.10600
C857        C  0.22210656  0.68646220  0.58605566    -0.03200
C858        C  0.23939690  0.67339464  0.57228136    -0.08900
C859        C  0.23189533  0.65638460  0.55485784    -0.16600
C860        C  0.20704108  0.65213866  0.55091923     0.25600
C861        C  0.18967050  0.66512036  0.56440261    -0.18200
C862        C  0.19712674  0.68218328  0.58184095    -0.07200
C863        C  0.19953960  0.63420415  0.53326351    -0.13600
C864        C  0.19444863  0.61874260  0.51847858    -0.13300
C865        C  0.18995248  0.59989598  0.50075780     0.25500
C866        C  0.16923388  0.60078794  0.48583927    -0.18700
C867        C  0.16553064  0.58288961  0.46803518    -0.07200
C868        C  0.18248785  0.56393237  0.46510645    -0.03300
C869        C  0.20303937  0.56294788  0.48030950    -0.08600
C870        C  0.20675802  0.58085838  0.49801980    -0.16200
H871        H  0.25874625  0.67626461  0.57497836     0.11900
H872        H  0.24550818  0.64645272  0.54452175     0.11200
H873        H  0.17037747  0.66198809  0.56151769     0.11100
H874        H  0.18332984  0.69193170  0.59208136     0.11700
H875        H  0.15612193  0.61543765  0.48778323     0.11700
H876        H  0.14961823  0.58389671  0.45639960     0.11700
H877        H  0.21635028  0.54850608  0.47816907     0.11800
H878        H  0.22287265  0.58001003  0.50940222     0.10600
C879        C  0.43620808  0.81501184  0.46220004    -0.03200
C880        C  0.41694350  0.79843000  0.45899912    -0.08900
C881        C  0.39870928  0.79622740  0.47668686    -0.16600
C882        C  0.39957067  0.81046241  0.49784532     0.25600
C883        C  0.41858135  0.82720827  0.50106553    -0.18200
C884        C  0.43675663  0.82956539  0.48327833    -0.07200
C885        C  0.38148066  0.80704855  0.51660654    -0.13600
C886        C  0.36662930  0.80261667  0.53224202    -0.13300
C887        C  0.34933034  0.79543091  0.55068347     0.25500
C888        C  0.33435666  0.81274333  0.56201370    -0.18700
C889        C  0.31747250  0.80547296  0.57977070    -0.07200
C890        C  0.31531137  0.78074685  0.58633513    -0.03300
C891        C  0.33054680  0.76354260  0.57488086    -0.08600
C892        C  0.34741819  0.77085637  0.55722758    -0.16200
H893        H  0.41619969  0.78702837  0.44289919     0.11900
H894        H  0.38412974  0.78316958  0.47402561     0.11200
H895        H  0.41947367  0.83826306  0.51739950     0.11100
H896        H  0.45137582  0.84255088  0.48601681     0.11700
H897        H  0.33568250  0.83182557  0.55708965     0.11700
H898        H  0.30602152  0.81916706  0.58822045     0.11700
H899        H  0.32946057  0.74439011  0.57954949     0.11800
H900        H  0.35894036  0.75730153  0.54861581     0.10600
C901        C  0.31822656  0.68806993  0.68143139    -0.03200
C902        C  0.32052195  0.68121019  0.70606484    -0.08900
C903        C  0.33793183  0.66390450  0.71308159    -0.16600
C904        C  0.35331902  0.65339833  0.69561335     0.25600
C905        C  0.35154726  0.66055432  0.67120614    -0.18200
C906        C  0.33414585  0.67774149  0.66414269    -0.07200
C907        C  0.37062533  0.63488226  0.70239858    -0.13600
C908        C  0.38535793  0.61907509  0.70643566    -0.13300
C909        C  0.40341412  0.60025792  0.70932176     0.25500
C910        C  0.42328157  0.59933802  0.69330463    -0.18700
C911        C  0.44062989  0.58083822  0.69548730    -0.07200
C912        C  0.43838229  0.56308535  0.71381384    -0.03300
C913        C  0.41848544  0.56415424  0.72996616    -0.08600
C914        C  0.40101851  0.58262844  0.72766009    -0.16200
H915        H  0.30861489  0.68888849  0.71983186     0.11900
H916        H  0.33920315  0.65853239  0.73204614     0.11200
H917        H  0.36344529  0.65262282  0.65755492     0.11100
H918        H  0.33304467  0.68278204  0.64508646     0.11700
H919        H  0.42527535  0.61284017  0.67901626     0.11700
H920        H  0.45580326  0.58027357  0.68282854     0.11700
H921        H  0.41649613  0.55066218  0.74425227     0.11800
H922        H  0.38566425  0.58313558  0.74010285     0.10600
C923        C  0.18728053  0.81409570  0.62237604    -0.03200
C924        C  0.16313814  0.80708576  0.61717041    -0.08900
C925        C  0.14571213  0.82454163  0.61070485    -0.16600
C926        C  0.15216056  0.84918696  0.60938558     0.25600
C927        C  0.17612549  0.85632516  0.61437621    -0.18200
C928        C  0.19358863  0.83892175  0.62079995    -0.07200
C929        C  0.13406119  0.86724928  0.60360686    -0.13600
C930        C  0.11879307  0.88253267  0.59962536    -0.13300
C931        C  0.10032135  0.90076855  0.59598513     0.25500
C932        C  0.08115307  0.90287007  0.61273551    -0.18700
C933        C  0.06332694  0.92076277  0.60955643    -0.07200
C934        C  0.06456220  0.93675828  0.58962377    -0.03300
C935        C  0.08372474  0.93453196  0.57276943    -0.08600
C936        C  0.10156438  0.91658541  0.57596066    -0.16200
H937        H  0.15766829  0.78814643  0.61820716     0.11900
H938        H  0.12717538  0.81884139  0.60693470     0.11200
H939        H  0.18127413  0.87537514  0.61349487     0.11100
H940        H  0.21196476  0.84495943  0.62475333     0.11700
H941        H  0.08006467  0.89076299  0.62831168     0.11700
H942        H  0.04868906  0.92234524  0.62274837     0.11700
H943        H  0.08489039  0.94677106  0.55731267     0.11800
H944        H  0.11635109  0.91511706  0.56292155     0.10600
C945        C  0.18827914  0.71692813  0.71430665    -0.03200
C946        C  0.16344411  0.71531656  0.70802342    -0.08900
C947        C  0.14611448  0.70837653  0.72539943    -0.16600
C948        C  0.15335682  0.70283682  0.74921416     0.25600
C949        C  0.17804251  0.70393563  0.75553599    -0.18200
C950        C  0.19541088  0.71093381  0.73821366    -0.07200
C951        C  0.13531444  0.69711085  0.76738415    -0.13600
C952        C  0.11971467  0.69362068  0.78248070    -0.13300
C953        C  0.10049501  0.69103233  0.80015660     0.25500
C954        C  0.10170831  0.67288422  0.81807944    -0.18700
C955        C  0.08310231  0.67082208  0.83543525    -0.07200
C956        C  0.06315276  0.68690838  0.83498433    -0.03300
C957        C  0.06205538  0.70504074  0.81695614    -0.08600
C958        C  0.08062020  0.70705240  0.79961111    -0.16200
H959        H  0.15732096  0.71986330  0.68981970     0.11900
H960        H  0.12702445  0.70768568  0.72035393     0.11200
H961        H  0.18382533  0.69974477  0.77394699     0.11100
H962        H  0.21436827  0.71193594  0.74363592     0.11700
H963        H  0.11706275  0.66046416  0.81872162     0.11700
H964        H  0.08430579  0.65685243  0.84934413     0.11700
H965        H  0.04696104  0.71777660  0.81653129     0.11800
H966        H  0.07957720  0.72122607  0.78588820     0.10600
C967        C  0.93672772  0.68767431  0.83598826    -0.03200
C968        C  0.91585712  0.67279660  0.83648916    -0.08900
C969        C  0.89760255  0.67566095  0.81892569    -0.16600
C970        C  0.90016153  0.69325486  0.80059036     0.25600
C971        C  0.92095980  0.70802944  0.79993556    -0.18200
C972        C  0.93907326  0.70536946  0.81760802    -0.07200
C973        C  0.88138016  0.69654065  0.78260157    -0.13600
C974        C  0.86607458  0.70041374  0.76733014    -0.13300
C975        C  0.84825812  0.70626043  0.74900367     0.25500
C976        C  0.85544944  0.70907187  0.72468173    -0.18700
C977        C  0.83835573  0.71567802  0.70697984    -0.07200
C978        C  0.81378788  0.71958654  0.71339275    -0.03300
C979        C  0.80672165  0.71654541  0.73789547    -0.08600
C980        C  0.82386259  0.70993676  0.75556029    -0.16200
H981        H  0.91367991  0.65912053  0.85057381     0.11900
H982        H  0.88151772  0.66421434  0.81966325     0.11200
H983        H  0.92307837  0.72174753  0.78587379     0.11100
H984        H  0.95489481  0.71718113  0.81704981     0.11700
H985        H  0.87431945  0.70637692  0.71943162     0.11700
H986        H  0.84443905  0.71791895  0.68832381     0.11700
H987        H  0.78799622  0.71947081  0.74347885     0.11800
H988        H  0.81812859  0.70791485  0.77436393     0.10600
C989        C  0.72014350  0.81375055  0.71196823    -0.03200
C990        C  0.71588951  0.80666266  0.73628282    -0.08900
C991        C  0.71016348  0.82404074  0.75402046    -0.16600
C992        C  0.70852860  0.84870212  0.74772481     0.25600
C993        C  0.71228419  0.85589840  0.72352922    -0.18200
C994        C  0.71801568  0.83855561  0.70574238    -0.07200
C995        C  0.70363554  0.86667222  0.76620587    -0.13600
C996        C  0.70020937  0.88177446  0.78180431    -0.13300
C997        C  0.69696474  0.89991699  0.80047906     0.25500
C998        C  0.71399258  0.90183306  0.81937924    -0.18700
C999        C  0.71128079  0.91980743  0.83721874    -0.07200
C1000       C  0.69150106  0.93605561  0.83632469    -0.03300
C1001       C  0.67436729  0.93398021  0.81744068    -0.08600
C1002       C  0.67709004  0.91595698  0.79959399    -0.16200
H1003       H  0.71737060  0.78773988  0.74171558     0.11900
H1004       H  0.70730988  0.81827267  0.77270263     0.11200
H1005       H  0.71108143  0.87495395  0.71846495     0.11100
H1006       H  0.72117392  0.84463770  0.68722250     0.11700
H1007       H  0.72944604  0.88954638  0.82022840     0.11700
H1008       H  0.72468137  0.92121068  0.85164250     0.11700
H1009       H  0.65899656  0.94635187  0.81653074     0.11800
H1010       H  0.66381331  0.91462806  0.78504602     0.10600
C1011       C  0.71893737  0.18569741  0.71252719    -0.03200
C1012       C  0.71399003  0.16144059  0.70577100    -0.08900
C1013       C  0.70683728  0.14431845  0.72328981    -0.16600
C1014       C  0.70455268  0.15117376  0.74776156     0.25600
C1015       C  0.70922915  0.17527902  0.75463031    -0.18200
C1016       C  0.71633194  0.19243849  0.73716107    -0.07200
C1017       C  0.69853668  0.13326520  0.76599719    -0.13600
C1018       C  0.69496027  0.11815171  0.78156820    -0.13300
C1019       C  0.69260721  0.10002970  0.80041492     0.25500
C1020       C  0.70869069  0.10029152  0.82021079    -0.18700
C1021       C  0.70731063  0.08217361  0.83806352    -0.07200
C1022       C  0.68965865  0.06368111  0.83643751    -0.03300
C1023       C  0.67339661  0.06363100  0.81665051    -0.08600
C1024       C  0.67492146  0.08168785  0.79867896    -0.16200
H1025       H  0.71582624  0.15562994  0.68699500     0.11900
H1026       H  0.70338241  0.12566864  0.71779318     0.11200
H1027       H  0.70767233  0.18075255  0.77354613     0.11100
H1028       H  0.72007727  0.21090691  0.74302402     0.11700
H1029       H  0.72248999  0.11434810  0.82169503     0.11700
H1030       H  0.72008251  0.08246368  0.85310885     0.11700
H1031       H  0.65965841  0.04953306  0.81510019     0.11800
H1032       H  0.66244699  0.08125471  0.78338624     0.10600
C1033       C  0.93770010  0.31153059  0.83578640    -0.03200
C1034       C  0.92075660  0.29241756  0.83754740    -0.08900
C1035       C  0.90306706  0.28923603  0.81953737    -0.16600
C1036       C  0.90215451  0.30506431  0.79953816     0.25600
C1037       C  0.91891980  0.32426447  0.79772253    -0.18200
C1038       C  0.93662775  0.32750481  0.81579243    -0.07200
C1039       C  0.88420054  0.30121027  0.78080743    -0.13600
C1040       C  0.86898879  0.29689896  0.76554624    -0.13300
C1041       C  0.85074629  0.29079985  0.74770321     0.25500
C1042       C  0.85760665  0.28568830  0.72367165    -0.18700
C1043       C  0.83997474  0.27927527  0.70644081    -0.07200
C1044       C  0.81518094  0.27781521  0.71302875    -0.03300
C1045       C  0.80846710  0.28298856  0.73726441    -0.08600
C1046       C  0.82615001  0.28945274  0.75445748    -0.16200
H1047       H  0.92141590  0.27985475  0.85277420     0.11900
H1048       H  0.89021926  0.27431016  0.82110684     0.11200
H1049       H  0.91839187  0.33660376  0.78230694     0.11100
H1050       H  0.94958860  0.34231615  0.81415538     0.11700
H1051       H  0.87660467  0.28655041  0.71826746     0.11700
H1052       H  0.84580755  0.27530161  0.68799777     0.11700
H1053       H  0.78957439  0.28200789  0.74296460     0.11800
H1054       H  0.82064975  0.29328395  0.77304535     0.10600
C1055       C  0.06509627  0.31126441  0.83657978    -0.03200
C1056       C  0.08047148  0.29080948  0.83675684    -0.08900
C1057       C  0.09805963  0.28781447  0.81856310    -0.16600
C1058       C  0.10045235  0.30524816  0.80006831     0.25600
C1059       C  0.08518588  0.32572931  0.79982675    -0.18200
C1060       C  0.06753003  0.32872137  0.81801349    -0.07200
C1061       C  0.11849541  0.30192301  0.78132126    -0.13600
C1062       C  0.13371663  0.29832420  0.76587610    -0.13300
C1063       C  0.15185932  0.29309780  0.74766934     0.25500
C1064       C  0.17652897  0.29210925  0.75408733    -0.18700
C1065       C  0.19408960  0.28610284  0.73660133    -0.07200
C1066       C  0.18716766  0.28104827  0.71242564    -0.03300
C1067       C  0.16233304  0.28239159  0.70610000    -0.08600
C1068       C  0.14480741  0.28832544  0.72364360    -0.16200
H1069       H  0.07863768  0.27708935  0.85084831     0.11900
H1070       H  0.10971898  0.27186586  0.81885577     0.11200
H1071       H  0.08686105  0.33928760  0.78555535     0.11100
H1072       H  0.05568246  0.34451860  0.81758864     0.11700
H1073       H  0.18216557  0.29572779  0.77266116     0.11700
H1074       H  0.21304294  0.28523061  0.74206788     0.11700
H1075       H  0.15638043  0.27846985  0.68770024     0.11800
H1076       H  0.12573589  0.28894736  0.71852423     0.10600
C1077       C  0.28288779  0.18684052  0.71251377    -0.03200
C1078       C  0.28552561  0.16216098  0.70596451    -0.08900
C1079       C  0.29153853  0.14468755  0.72352300    -0.16600
C1080       C  0.29508386  0.15163618  0.74780226     0.25600
C1081       C  0.29309020  0.17619176  0.75438175    -0.18200
C1082       C  0.28706910  0.19369935  0.73687420    -0.07200
C1083       C  0.29981252  0.13349433  0.76614665    -0.13600
C1084       C  0.30283577  0.11828205  0.78171740    -0.13300
C1085       C  0.30546360  0.09996869  0.80031475     0.25500
C1086       C  0.32430983  0.10160324  0.81746262    -0.18700
C1087       C  0.32665698  0.08381454  0.83560207    -0.07200
C1088       C  0.31019680  0.06423272  0.83665184    -0.03300
C1089       C  0.29129965  0.06274966  0.81947192    -0.08600
C1090       C  0.28895007  0.08053585  0.80139918    -0.16200
H1091       H  0.28246272  0.15625311  0.68738566     0.11900
H1092       H  0.29301855  0.12571395  0.71823904     0.11200
H1093       H  0.29578547  0.18175758  0.77313469     0.11100
H1094       H  0.28523314  0.21252037  0.74253121     0.11700
H1095       H  0.33714072  0.11660784  0.81681910     0.11700
H1096       H  0.34130130  0.08522590  0.84875850     0.11700
H1097       H  0.27836849  0.04783670  0.82014532     0.11800
H1098       H  0.27424782  0.07915195  0.78829415     0.10600
C1099       C  0.28343773  0.81361525  0.71519505    -0.03200
C1100       C  0.28607647  0.83829673  0.70867648    -0.08900
C1101       C  0.29327755  0.85553247  0.72597753    -0.16600
C1102       C  0.29802697  0.84836701  0.74998107     0.25600
C1103       C  0.29588089  0.82381777  0.75657921    -0.18200
C1104       C  0.28863091  0.80653109  0.73931498    -0.07200
C1105       C  0.30372211  0.86644637  0.76807016    -0.13600
C1106       C  0.30684211  0.88213625  0.78310801    -0.13300
C1107       C  0.30870415  0.90128543  0.80089392     0.25500
C1108       C  0.29243577  0.92095407  0.80004921    -0.18700
C1109       C  0.29358705  0.93927463  0.81769215    -0.07200
C1110       C  0.31110597  0.93811538  0.83630233    -0.03300
C1111       C  0.32745068  0.91840394  0.83700955    -0.08600
C1112       C  0.32624387  0.90005498  0.81937746    -0.16200
H1113       H  0.28221411  0.84438300  0.69030146     0.11900
H1114       H  0.29476070  0.87451841  0.72071999     0.11200
H1115       H  0.29942652  0.81809862  0.77514898     0.11100
H1116       H  0.28685416  0.78768592  0.74492611     0.11700
H1117       H  0.27873481  0.92201329  0.78587077     0.11700
H1118       H  0.28074340  0.95426503  0.81697459     0.11700
H1119       H  0.34104674  0.91723863  0.85127170     0.11800
H1120       H  0.33885626  0.88487353  0.82024085     0.10600
C1121       C  0.31509801  0.78006979  0.21239312    -0.03200
C1122       C  0.31977725  0.80495636  0.21657787    -0.08900
C1123       C  0.33666773  0.81212140  0.23430320    -0.16600
C1124       C  0.34907269  0.79453668  0.24803259     0.25600
C1125       C  0.34475064  0.76977415  0.24377069    -0.18200
C1126       C  0.32793093  0.76257104  0.22608543    -0.07200
C1127       C  0.36613825  0.80170095  0.26664079    -0.13600
C1128       C  0.38066725  0.80644142  0.28244415    -0.13300
C1129       C  0.39846591  0.81055457  0.30129998     0.25500
C1130       C  0.39887047  0.79543886  0.32187177    -0.18700
C1131       C  0.41700760  0.79834235  0.33951703    -0.07200
C1132       C  0.43498007  0.81639444  0.33678447    -0.03300
C1133       C  0.43418983  0.83187350  0.31637610    -0.08600
C1134       C  0.41602973  0.82892678  0.29869743    -0.16200
H1135       H  0.31029418  0.81888250  0.20628912     0.11900
H1136       H  0.33993556  0.83134913  0.23739513     0.11200
H1137       H  0.35429152  0.75600186  0.25423600     0.11100
H1138       H  0.32484764  0.74327445  0.22330296     0.11700
H1139       H  0.38541562  0.78113733  0.32406554     0.11700
H1140       H  0.41733967  0.78621187  0.35510099     0.11700
H1141       H  0.44783593  0.84595164  0.31400650     0.11800
H1142       H  0.41590556  0.84071256  0.28284515     0.10600
C1143       C  0.22078030  0.68624628  0.21393154    -0.03200
C1144       C  0.19610462  0.68462470  0.22096435    -0.08900
C1145       C  0.18879131  0.66812932  0.23905795    -0.16600
C1146       C  0.20599891  0.65299617  0.25030921     0.25600
C1147       C  0.23053992  0.65446173  0.24340173    -0.18200
C1148       C  0.23790390  0.67096813  0.22540813    -0.07200
C1149       C  0.19867350  0.63578712  0.26881165    -0.13600
C1150       C  0.19395082  0.62073577  0.28417944    -0.13300
C1151       C  0.19006629  0.60200289  0.30222569     0.25500
C1152       C  0.20697210  0.58298954  0.30444343    -0.18700
C1153       C  0.20361098  0.56484285  0.32201205    -0.07200
C1154       C  0.18329266  0.56551203  0.33759677    -0.03300
C1155       C  0.16634765  0.58459188  0.33535944    -0.08600
C1156       C  0.16970557  0.60274940  0.31770127    -0.16200
H1157       H  0.18246951  0.69619980  0.21260668     0.11900
H1158       H  0.16974102  0.66718012  0.24425174     0.11200
H1159       H  0.24402330  0.64282158  0.25194355     0.11100
H1160       H  0.25701732  0.67171533  0.22046082     0.11700
H1161       H  0.22282400  0.58225234  0.29264801     0.11700
H1162       H  0.21694583  0.55035966  0.32363329     0.11700
H1163       H  0.15063096  0.58540860  0.34731658     0.11800
H1164       H  0.15652494  0.61738603  0.31619161     0.10600
C1165       C  0.31676451  0.68724128  0.11792725    -0.03200
C1166       C  0.33222838  0.67625874  0.13521483    -0.08900
C1167       C  0.35027943  0.65980015  0.12791898    -0.16600
C1168       C  0.35320394  0.65398488  0.10326046     0.25600
C1169       C  0.33813276  0.66498649  0.08583509    -0.18200
C1170       C  0.32005577  0.68155361  0.09309372    -0.07200
C1171       C  0.37130530  0.63626511  0.09616715    -0.13600
C1172       C  0.38642504  0.62084271  0.09187155    -0.13300
C1173       C  0.40448036  0.60200259  0.08864326     0.25500
C1174       C  0.40050054  0.58288635  0.07217795    -0.18700
C1175       C  0.41762914  0.56406556  0.06997577    -0.07200
C1176       C  0.43879234  0.56408348  0.08441651    -0.03300
C1177       C  0.44272517  0.58342427  0.10073582    -0.08600
C1178       C  0.42571383  0.60227902  0.10278165    -0.16200
H1179       H  0.33037049  0.68033016  0.15444150     0.11900
H1180       H  0.36185021  0.65144580  0.14157336     0.11200
H1181       H  0.34022736  0.66063604  0.06668254     0.11100
H1182       H  0.30855489  0.68974173  0.07930295     0.11700
H1183       H  0.38408907  0.58242750  0.06121210     0.11700
H1184       H  0.41431611  0.54938645  0.05720610     0.11700
H1185       H  0.45888938  0.58375693  0.11206706     0.11800
H1186       H  0.42896370  0.61690610  0.11563885     0.10600
C1187       C  0.31178830  0.93778986  0.96316606    -0.03200
C1188       C  0.32659866  0.91690158  0.96252982    -0.08900
C1189       C  0.32411859  0.89886956  0.98039324    -0.16600
C1190       C  0.30687439  0.90160299  0.99905271     0.25600
C1191       C  0.29219405  0.92246974  0.99986935    -0.18200
C1192       C  0.29459760  0.94045532  0.98199592    -0.07200
C1193       C  0.30380633  0.88279793  0.01706788    -0.13600
C1194       C  0.30038005  0.86711457  0.03207197    -0.13300
C1195       C  0.29511278  0.84862220  0.04990260     0.25500
C1196       C  0.29654782  0.85407098  0.07477240    -0.18700
C1197       C  0.28996784  0.83658239  0.09211122    -0.07200
C1198       C  0.28191369  0.81337090  0.08476056    -0.03300
C1199       C  0.28111509  0.80787228  0.05971277    -0.08600
C1200       C  0.28759235  0.82543724  0.04241077    -0.16200
H1201       H  0.33992980  0.91454814  0.94813077     0.11900
H1202       H  0.33551774  0.88275457  0.97957341     0.11200
H1203       H  0.27874635  0.92472725  0.01418590     0.11100
H1204       H  0.28291121  0.95636723  0.98268000     0.11700
H1205       H  0.30237139  0.87196522  0.08075605     0.11700
H1206       H  0.29094157  0.84132463  0.11124631     0.11700
H1207       H  0.27496397  0.79019459  0.05345345     0.11800
H1208       H  0.28637104  0.82105763  0.02319154     0.10600
C1209       C  0.06341377  0.69147380  0.96161314    -0.03200
C1210       C  0.06141097  0.71066325  0.97841292    -0.08900
C1211       C  0.07927791  0.71398964  0.99619689    -0.16600
C1212       C  0.09934140  0.69825125  0.99725956     0.25600
C1213       C  0.10157293  0.67921518  0.98039817    -0.18200
C1214       C  0.08365517  0.67582343  0.96261960    -0.07200
C1215       C  0.11760983  0.70179041  0.01564820    -0.13600
C1216       C  0.13267934  0.70546712  0.03115488    -0.13300
C1217       C  0.15064608  0.71062412  0.04946847     0.25500
C1218       C  0.17535579  0.71130527  0.04317661    -0.18700
C1219       C  0.19285327  0.71694292  0.06077159    -0.07200
C1220       C  0.18584469  0.72193463  0.08495727    -0.03300
C1221       C  0.16091976  0.72110041  0.09112420    -0.08600
C1222       C  0.14344324  0.71549245  0.07345831    -0.16200
H1223       H  0.04600495  0.72301063  0.97770749     0.11900
H1224       H  0.07745973  0.72882547  0.00910545     0.11200
H1225       H  0.11709930  0.66701013  0.98102864     0.11100
H1226       H  0.08549058  0.66102179  0.94968252     0.11700
H1227       H  0.18109079  0.70764499  0.02462369     0.11700
H1228       H  0.21185236  0.71751366  0.05538081     0.11700
H1229       H  0.15488900  0.72501096  0.10951822     0.11800
H1230       H  0.12432066  0.71511680  0.07846788     0.10600
C1231       C  0.78232171  0.68549071  0.21368125    -0.03200
C1232       C  0.80717624  0.67942310  0.21597835    -0.08900
C1233       C  0.81483915  0.66278747  0.23375561    -0.16600
C1234       C  0.79778863  0.65207220  0.24946634     0.25600
C1235       C  0.77303713  0.65781480  0.24715009    -0.18200
C1236       C  0.76532899  0.67434693  0.22938042    -0.07200
C1237       C  0.80539955  0.63492836  0.26782358    -0.13600
C1238       C  0.80997853  0.61988035  0.28318406    -0.13300
C1239       C  0.81314650  0.60093025  0.30106384     0.25500
C1240       C  0.79847705  0.58008989  0.29991688    -0.18700
C1241       C  0.80069102  0.56185457  0.31753681    -0.07200
C1242       C  0.81774610  0.56414763  0.33647222    -0.03300
C1243       C  0.83268198  0.58498229  0.33738514    -0.08600
C1244       C  0.83029124  0.60335809  0.31982143    -0.16200
H1245       H  0.82070320  0.68757165  0.20410412     0.11900
H1246       H  0.83403355  0.65834872  0.23528573     0.11200
H1247       H  0.75966852  0.64954000  0.25914028     0.11100
H1248       H  0.74607659  0.67857455  0.22812165     0.11700
H1249       H  0.78510749  0.57806171  0.28553150     0.11700
H1250       H  0.78889537  0.54604648  0.31659552     0.11700
H1251       H  0.84594319  0.58709484  0.35184851     0.11800
H1252       H  0.84167576  0.61945705  0.32094154     0.10600
C1253       C  0.56281636  0.81349431  0.33570026    -0.03200
C1254       C  0.58006162  0.79468851  0.33787273    -0.08900
C1255       C  0.59806141  0.79161549  0.32009271    -0.16600
C1256       C  0.59901060  0.80730274  0.29997571     0.25600
C1257       C  0.58199306  0.82622332  0.29779550    -0.18200
C1258       C  0.56398196  0.82934583  0.31561239    -0.07200
C1259       C  0.61719712  0.80357807  0.28142624    -0.13600
C1260       C  0.63246091  0.79924125  0.26620442    -0.13300
C1261       C  0.65062754  0.79248983  0.24851500     0.25500
C1262       C  0.66499363  0.81028810  0.23716936    -0.18700
C1263       C  0.68281098  0.80347068  0.22019597    -0.07200
C1264       C  0.68646239  0.77872646  0.21441863    -0.03300
C1265       C  0.67189232  0.76102252  0.22595463    -0.08600
C1266       C  0.65410941  0.76788229  0.24285011    -0.16200
H1267       H  0.57938641  0.78227065  0.35321972     0.11900
H1268       H  0.61111509  0.77689614  0.32193005     0.11200
H1269       H  0.58256194  0.83844185  0.28228382     0.11100
H1270       H  0.55085511  0.84397860  0.31370388     0.11700
H1271       H  0.66245873  0.82939801  0.24146652     0.11700
H1272       H  0.69372231  0.81754461  0.21165184     0.11700
H1273       H  0.67417490  0.74183676  0.22190980     0.11800
H1274       H  0.64309521  0.75396290  0.25154559     0.10600
C1275       C  0.68792507  0.68476789  0.11974407    -0.03200
C1276       C  0.68297638  0.68077474  0.09486926    -0.08900
C1277       C  0.66592965  0.66312464  0.08771469    -0.16600
C1278       C  0.65363060  0.64921649  0.10528556     0.25600
C1279       C  0.65853816  0.65300034  0.13002314    -0.18200
C1280       C  0.67551825  0.67059146  0.13720980    -0.07200
C1281       C  0.63569831  0.63129284  0.09818520    -0.13600
C1282       C  0.62014766  0.61634797  0.09366594    -0.13300
C1283       C  0.60097288  0.59866820  0.09003148     0.25500
C1284       C  0.58003096  0.59951265  0.10466684    -0.18700
C1285       C  0.56178652  0.58189067  0.10208191    -0.07200
C1286       C  0.56425505  0.56313380  0.08483964    -0.03300
C1287       C  0.58507634  0.56261161  0.06983376    -0.08600
C1288       C  0.60336649  0.58026272  0.07246487    -0.16200
H1289       H  0.69219830  0.69132568  0.08094666     0.11900
H1290       H  0.66228426  0.66039906  0.06850306     0.11200
H1291       H  0.64914740  0.64239551  0.14381098     0.11100
H1292       H  0.67886420  0.67311032  0.15649506     0.11700
H1293       H  0.57795906  0.61361349  0.11833738     0.11700
H1294       H  0.54593915  0.58256437  0.11387764     0.11700
H1295       H  0.58729757  0.54831905  0.05639619     0.11800
H1296       H  0.61946885  0.57938340  0.06102933     0.10600
C1297       C  0.93773339  0.68738660  0.96320588    -0.03200
C1298       C  0.91979214  0.66938857  0.96627221    -0.08900
C1299       C  0.90151856  0.67231483  0.98387267    -0.16600
C1300       C  0.90100488  0.69330496  0.99841094     0.25600
C1301       C  0.91890299  0.71126935  0.99539011    -0.18200
C1302       C  0.93721064  0.70831578  0.97789569    -0.07200
C1303       C  0.88213001  0.69662176  0.01637022    -0.13600
C1304       C  0.86679819  0.70049034  0.03166740    -0.13300
C1305       C  0.84912867  0.70645411  0.05015509     0.25500
C1306       C  0.82415834  0.70465720  0.04520641    -0.18700
C1307       C  0.80705271  0.71166472  0.06279994    -0.07200
C1308       C  0.81473782  0.72046679  0.08562811    -0.03300
C1309       C  0.83988444  0.72180796  0.09056600    -0.08600
C1310       C  0.85694023  0.71492311  0.07290055    -0.16200
H1311       H  0.91991605  0.65321122  0.95496182     0.11900
H1312       H  0.88774715  0.65831894  0.98604606     0.11200
H1313       H  0.91863716  0.72760412  0.00648489     0.11100
H1314       H  0.95081658  0.72244488  0.97557064     0.11700
H1315       H  0.81791250  0.69812016  0.02765726     0.11700
H1316       H  0.78783082  0.71026114  0.05850360     0.11700
H1317       H  0.84639906  0.72855945  0.10792515     0.11800
H1318       H  0.87623061  0.71646418  0.07688865     0.10600
C1319       C  0.69271981  0.93612191  0.96223747    -0.03200
C1320       C  0.71155760  0.91880177  0.96124010    -0.08900
C1321       C  0.71394930  0.90139865  0.97970935    -0.16600
C1322       C  0.69755549  0.90118658  0.99932378     0.25600
C1323       C  0.67868274  0.91835723  0.00033144    -0.18200
C1324       C  0.67626912  0.93576026  0.98187283    -0.07200
C1325       C  0.70025188  0.88350661  0.01851620    -0.13600
C1326       C  0.70298946  0.86861962  0.03445319    -0.13300
C1327       C  0.70728324  0.85054588  0.05297958     0.25500
C1328       C  0.70678114  0.82578603  0.04692096    -0.18700
C1329       C  0.71274575  0.80819801  0.06436262    -0.07200
C1330       C  0.71931903  0.81515444  0.08815548    -0.03300
C1331       C  0.71895739  0.84007686  0.09430872    -0.08600
C1332       C  0.71304743  0.85764805  0.07678859    -0.16200
H1333       H  0.72449865  0.91896208  0.94630033     0.11900
H1334       H  0.72864794  0.88822407  0.97877954     0.11200
H1335       H  0.66592848  0.91836807  0.01543494     0.11100
H1336       H  0.66169616  0.94905602  0.98292742     0.11700
H1337       H  0.70227653  0.82008925  0.02856055     0.11700
H1338       H  0.71265746  0.78918548  0.05906543     0.11700
H1339       H  0.72386181  0.84605991  0.11246157     0.11800
H1340       H  0.71346385  0.87677855  0.08167978     0.10600
C1341       C  0.68565593  0.22057002  0.21262346    -0.03200
C1342       C  0.69206990  0.21652785  0.23713832    -0.08900
C1343       C  0.67432026  0.20997329  0.25428494    -0.16600
C1344       C  0.64993769  0.20735444  0.24721042     0.25600
C1345       C  0.64340846  0.21108849  0.22284087    -0.18200
C1346       C  0.66111531  0.21761688  0.20565389    -0.07200
C1347       C  0.63153475  0.20153174  0.26507540    -0.13600
C1348       C  0.61611755  0.19747080  0.28026994    -0.13300
C1349       C  0.59778598  0.19367352  0.29874119     0.25500
C1350       C  0.59944898  0.17378514  0.31470146    -0.18700
C1351       C  0.58206711  0.17065809  0.33316062    -0.07200
C1352       C  0.56286330  0.18740213  0.33577888    -0.03300
C1353       C  0.56113929  0.20714900  0.31956923    -0.08600
C1354       C  0.57853116  0.21028097  0.30117384    -0.16200
H1355       H  0.71075836  0.21863999  0.24313801     0.11900
H1356       H  0.67958208  0.20718094  0.27311220     0.11200
H1357       H  0.62458490  0.20918323  0.21715883     0.11100
H1358       H  0.65551277  0.22061892  0.18697002     0.11700
H1359       H  0.61426219  0.16082172  0.31299031     0.11700
H1360       H  0.58357987  0.15526651  0.34543882     0.11700
H1361       H  0.54642723  0.22021794  0.32133664     0.11800
H1362       H  0.57706879  0.22574754  0.28897072     0.10600
C1363       C  0.78238217  0.31531116  0.21199404    -0.03200
C1364       C  0.78455220  0.30908874  0.23680532    -0.08900
C1365       C  0.79194964  0.32646159  0.25391529    -0.16600
C1366       C  0.79737034  0.35026761  0.24651388     0.25600
C1367       C  0.79570043  0.35654328  0.22183162    -0.18200
C1368       C  0.78826456  0.33920658  0.20467162    -0.07200
C1369       C  0.80356895  0.36847811  0.26439030    -0.13600
C1370       C  0.80752930  0.38387017  0.27959035    -0.13300
C1371       C  0.81083307  0.40243734  0.29786744     0.25500
C1372       C  0.79533470  0.42273245  0.29828498    -0.18700
C1373       C  0.79787480  0.44043514  0.31642796    -0.07200
C1374       C  0.81596407  0.43803566  0.33437152    -0.03300
C1375       C  0.83166679  0.41778625  0.33372031    -0.08600
C1376       C  0.82906577  0.40004196  0.31558061    -0.16200
H1377       H  0.78019818  0.29088419  0.24308723     0.11900
H1378       H  0.79311034  0.32140586  0.27297554     0.11200
H1379       H  0.79981193  0.37493034  0.21589162     0.11100
H1380       H  0.78688463  0.34459606  0.18573067     0.11700
H1381       H  0.78112367  0.42474568  0.28472595     0.11700
H1382       H  0.78553936  0.45586109  0.31670214     0.11700
H1383       H  0.84573183  0.41564855  0.34740263     0.11800
H1384       H  0.84112413  0.38439335  0.31548012     0.10600
C1385       C  0.68592449  0.31368256  0.11696829    -0.03200
C1386       C  0.69226026  0.33830121  0.11346454    -0.08900
C1387       C  0.67471337  0.35524122  0.10609159    -0.16600
C1388       C  0.65064025  0.34783605  0.10208533     0.25600
C1389       C  0.64416356  0.32338060  0.10532084    -0.18200
C1390       C  0.66167706  0.30638851  0.11269197    -0.07200
C1391       C  0.63238088  0.36557152  0.09585276    -0.13600
C1392       C  0.61698631  0.38081971  0.09227297    -0.13300
C1393       C  0.59846843  0.39924293  0.09022278     0.25500
C1394       C  0.58102729  0.40161320  0.10873508    -0.18700
C1395       C  0.56338265  0.41990459  0.10740469    -0.07200
C1396       C  0.56312403  0.43604955  0.08758711    -0.03300
C1397       C  0.58057087  0.43362025  0.06899269    -0.08600
C1398       C  0.59818790  0.41522010  0.07029194    -0.16200
H1399       H  0.71071904  0.34454624  0.11663717     0.11900
H1400       H  0.67986308  0.37417416  0.10379832     0.11200
H1401       H  0.62552394  0.31749970  0.10242855     0.11100
H1402       H  0.65616124  0.28760766  0.11526049     0.11700
H1403       H  0.58117195  0.38941093  0.12427275     0.11700
H1404       H  0.55003390  0.42163204  0.12187945     0.11700
H1405       H  0.58049962  0.44596093  0.05357259     0.11800
H1406       H  0.61164710  0.41356458  0.05590818     0.10600
C1407       C  0.72178008  0.18521595  0.08573491    -0.03200
C1408       C  0.69698346  0.17953659  0.08220992    -0.08900
C1409       C  0.69010045  0.16155990  0.06547076    -0.16600
C1410       C  0.70788842  0.14907664  0.05205865     0.25600
C1411       C  0.73255196  0.15466802  0.05537822    -0.18200
C1412       C  0.73947568  0.17257419  0.07208201    -0.07200
C1413       C  0.70108873  0.13068680  0.03464282    -0.13600
C1414       C  0.69718402  0.11542095  0.01933256    -0.13300
C1415       C  0.69468679  0.09766501  0.00019180     0.25500
C1416       C  0.71120456  0.09782779  0.98070198    -0.18700
C1417       C  0.70933178  0.08047405  0.96217964    -0.07200
C1418       C  0.69087768  0.06276644  0.96294307    -0.03300
C1419       C  0.67430177  0.06265608  0.98251296    -0.08600
C1420       C  0.67619552  0.08006200  0.00106861    -0.16200
H1421       H  0.68291029  0.18891771  0.09241825     0.11900
H1422       H  0.67094341  0.15741569  0.06299207     0.11200
H1423       H  0.74646579  0.14517257  0.04502810     0.11100
H1424       H  0.75870389  0.17649724  0.07428429     0.11700
H1425       H  0.72564158  0.11129204  0.97990791     0.11700
H1426       H  0.72239505  0.08066971  0.94734892     0.11700
H1427       H  0.66003494  0.04902886  0.98342343     0.11800
H1428       H  0.66337087  0.07971597  0.01610852     0.10600
C1429       C  0.81521927  0.28089268  0.08511502    -0.03200
C1430       C  0.83228873  0.26397710  0.07608563    -0.08900
C1431       C  0.85014995  0.27122685  0.05942144    -0.16600
C1432       C  0.85116621  0.29541657  0.05141873     0.25600
C1433       C  0.83432213  0.31243246  0.06029429    -0.18200
C1434       C  0.81647698  0.30524445  0.07710244    -0.07200
C1435       C  0.86907552  0.30235216  0.03352123    -0.13600
C1436       C  0.88400100  0.30633132  0.01786418    -0.13300
C1437       C  0.90163538  0.30893573  0.99859528     0.25500
C1438       C  0.91842624  0.32817421  0.99883963    -0.18700
C1439       C  0.93604100  0.33000177  0.98045346    -0.07200
C1440       C  0.93692998  0.31262866  0.96168120    -0.03300
C1441       C  0.91991627  0.29352433  0.96139792    -0.08600
C1442       C  0.90236155  0.29169297  0.97978713    -0.16200
H1443       H  0.83193064  0.24513406  0.08197261     0.11900
H1444       H  0.86308074  0.25790224  0.05264077     0.11200
H1445       H  0.83489062  0.33119042  0.05413096     0.11100
H1446       H  0.80357949  0.31868223  0.08367458     0.11700
H1447       H  0.91805037  0.34158174  0.01332898     0.11700
H1448       H  0.94909787  0.34480884  0.98091229     0.11700
H1449       H  0.92047281  0.27990997  0.94711113     0.11800
H1450       H  0.88950536  0.27669710  0.97947805     0.10600
C1451       C  0.22097558  0.31570883  0.21529139    -0.03200
C1452       C  0.23883358  0.32942302  0.22759256    -0.08900
C1453       C  0.23214169  0.34668122  0.24509833    -0.16600
C1454       C  0.20753187  0.35053711  0.25064989     0.25600
C1455       C  0.18958313  0.33695098  0.23861652    -0.18200
C1456       C  0.19623815  0.31964311  0.22104085    -0.07200
C1457       C  0.20091139  0.36863848  0.26852828    -0.13600
C1458       C  0.19660510  0.38422591  0.28345891    -0.13300
C1459       C  0.19273990  0.40318320  0.30125079     0.25500
C1460       C  0.17309761  0.40183116  0.31756496    -0.18700
C1461       C  0.16980200  0.41998451  0.33519038    -0.07200
C1462       C  0.18608080  0.43969640  0.33659444    -0.03300
C1463       C  0.20565376  0.44104866  0.32011076    -0.08600
C1464       C  0.20896041  0.42287431  0.30254010    -0.16200
H1465       H  0.25803126  0.32685907  0.22369367     0.11900
H1466       H  0.24619861  0.35707391  0.25428079     0.11200
H1467       H  0.17046385  0.33976479  0.24277240     0.11100
H1468       H  0.18203865  0.30934995  0.21199671     0.11700
H1469       H  0.16045844  0.38667572  0.31677780     0.11700
H1470       H  0.15466526  0.41864131  0.34782936     0.11700
H1471       H  0.21847854  0.45603391  0.32106791     0.11800
H1472       H  0.22426432  0.42408037  0.29007911     0.10600
C1473       C  0.31295940  0.22019233  0.21607408    -0.03200
C1474       C  0.32539492  0.23767672  0.23012227    -0.08900
C1475       C  0.34236105  0.23047126  0.24766308    -0.16600
C1476       C  0.34717551  0.20572609  0.25146192     0.25600
C1477       C  0.33485085  0.18813874  0.23770479    -0.18200
C1478       C  0.31781615  0.19530662  0.22011491    -0.07200
C1479       C  0.36512211  0.19864236  0.26920676    -0.13600
C1480       C  0.38077552  0.19431660  0.28399146    -0.13300
C1481       C  0.40003871  0.19106280  0.30145992     0.25500
C1482       C  0.39957980  0.17141425  0.31776867    -0.18700
C1483       C  0.41801699  0.16888943  0.33518674    -0.07200
C1484       C  0.43702390  0.18601013  0.33638624    -0.03300
C1485       C  0.43754233  0.20548940  0.31981780    -0.08600
C1486       C  0.41910767  0.20801115  0.30245547    -0.16200
H1487       H  0.32208330  0.25696700  0.22754066     0.11900
H1488       H  0.35182474  0.24423316  0.25819607     0.11200
H1489       H  0.33848120  0.16892355  0.24048872     0.11100
H1490       H  0.30854826  0.18139207  0.20963780     0.11700
H1491       H  0.38488634  0.15822740  0.31717438     0.11700
H1492       H  0.41736981  0.15379623  0.34790936     0.11700
H1493       H  0.45200493  0.21891389  0.32063209     0.11800
H1494       H  0.41958382  0.22331338  0.28996686     0.10600
C1495       C  0.31668618  0.31123779  0.12005414    -0.03200
C1496       C  0.33086820  0.32356825  0.13749811    -0.08900
C1497       C  0.34907576  0.33982329  0.13026339    -0.16600
C1498       C  0.35346702  0.34408649  0.10551596     0.25600
C1499       C  0.33977168  0.33164933  0.08792491    -0.18200
C1500       C  0.32148367  0.31529077  0.09513791    -0.07200
C1501       C  0.37142365  0.36198801  0.09860580    -0.13600
C1502       C  0.38619829  0.37792944  0.09515281    -0.13300
C1503       C  0.40362441  0.39750395  0.09319017     0.25500
C1504       C  0.40069924  0.41574902  0.07555190    -0.18700
C1505       C  0.41748750  0.43492097  0.07400654    -0.07200
C1506       C  0.43731828  0.43607376  0.09016455    -0.03300
C1507       C  0.43998073  0.41785099  0.10798901    -0.08600
C1508       C  0.42324039  0.39868317  0.10947182    -0.16200
H1509       H  0.32779925  0.32082269  0.15680929     0.11900
H1510       H  0.35955640  0.34932904  0.14403394     0.11200
H1511       H  0.34302028  0.33479609  0.06869367     0.11100
H1512       H  0.31100025  0.30599810  0.08124634     0.11700
H1513       H  0.38550382  0.41511588  0.06296556     0.11700
H1514       H  0.41520402  0.44871056  0.06005958     0.11700
H1515       H  0.45514621  0.41841857  0.12061328     0.11800
H1516       H  0.42559873  0.38477985  0.12330799     0.10600
C1517       C  0.18493581  0.28069899  0.08775401    -0.03200
C1518       C  0.19202070  0.28692775  0.06386910    -0.08900
C1519       C  0.17452331  0.29295878  0.04635868    -0.16600
C1520       C  0.14973171  0.29283168  0.05243629     0.25600
C1521       C  0.14249047  0.28688812  0.07617679    -0.18200
C1522       C  0.15995722  0.28091342  0.09375228    -0.07200
C1523       C  0.13171828  0.29809964  0.03412346    -0.13600
C1524       C  0.11672230  0.30166765  0.01847321    -0.13300
C1525       C  0.09895086  0.30478788  0.99945481     0.25500
C1526       C  0.08241211  0.32424338  0.00026099    -0.18700
C1527       C  0.06490314  0.32688482  0.98192159    -0.07200
C1528       C  0.06384974  0.31009379  0.96263425    -0.03300
C1529       C  0.08050482  0.29066917  0.96189814    -0.08600
C1530       C  0.09798537  0.28805489  0.98021458    -0.16200
H1531       H  0.21107111  0.28693717  0.05862819     0.11900
H1532       H  0.18032082  0.29747071  0.02801116     0.11200
H1533       H  0.12333001  0.28663023  0.08104164     0.11100
H1534       H  0.15386353  0.27608835  0.11190960     0.11700
H1535       H  0.08297850  0.33726418  0.01509280     0.11700
H1536       H  0.05212408  0.34192410  0.98276079     0.11700
H1537       H  0.07981397  0.27748428  0.94722209     0.11800
H1538       H  0.11065260  0.27290945  0.97945462     0.10600
C1539       C  0.30969638  0.06277854  0.96411827    -0.03200
C1540       C  0.29209380  0.05939018  0.98245702    -0.08900
C1541       C  0.28928376  0.07667875  0.00095526    -0.16600
C1542       C  0.30399380  0.09753927  0.00127658     0.25600
C1543       C  0.32157665  0.10100594  0.98305213    -0.18200
C1544       C  0.32443936  0.08369610  0.96455907    -0.07200
C1545       C  0.30059165  0.11566945  0.01993305    -0.13600
C1546       C  0.29696604  0.13110809  0.03515365    -0.13300
C1547       C  0.29153475  0.14974281  0.05281518     0.25500
C1548       C  0.29248364  0.14447078  0.07775275    -0.18700
C1549       C  0.28607057  0.16226556  0.09484652    -0.07200
C1550       C  0.27867796  0.18563527  0.08721064    -0.03300
C1551       C  0.27815472  0.19086466  0.06209308    -0.08600
C1552       C  0.28449169  0.17300237  0.04503516    -0.16200
H1553       H  0.28048619  0.04341217  0.98233310     0.11900
H1554       H  0.27555175  0.07386298  0.01489903     0.11200
H1555       H  0.33298694  0.11712653  0.98308305     0.11100
H1556       H  0.33810710  0.08657641  0.95057634     0.11700
H1557       H  0.29790134  0.12652434  0.08398182     0.11700
H1558       H  0.28676620  0.15766388  0.11403221     0.11700
H1559       H  0.27248984  0.20862553  0.05559389     0.11800
H1560       H  0.28363059  0.17725254  0.02576285     0.10600
C1561       C  0.18652890  0.81342951  0.18106967    -0.03200
C1562       C  0.16212491  0.80620484  0.18464973    -0.08900
C1563       C  0.14433209  0.82328469  0.19113362    -0.16600
C1564       C  0.15065572  0.84778761  0.19423080     0.25600
C1565       C  0.17494845  0.85507673  0.19128475    -0.18200
C1566       C  0.19278916  0.83803284  0.18476784    -0.07200
C1567       C  0.13206877  0.86564180  0.19923586    -0.13600
C1568       C  0.11657976  0.88097892  0.20214427    -0.13300
C1569       C  0.09834083  0.89974004  0.20420277     0.25500
C1570       C  0.07889019  0.90040903  0.18770360    -0.18700
C1571       C  0.06166657  0.91913919  0.18899556    -0.07200
C1572       C  0.06371796  0.93739425  0.20682230    -0.03300
C1573       C  0.08313807  0.93653797  0.22347113    -0.08600
C1574       C  0.10039957  0.91779846  0.22212986    -0.16200
H1575       H  0.15665202  0.78742861  0.18199272     0.11900
H1576       H  0.12557416  0.81744652  0.19331149     0.11200
H1577       H  0.18002983  0.87402056  0.19360071     0.11100
H1578       H  0.21137832  0.84420611  0.18222723     0.11700
H1579       H  0.07714522  0.88656248  0.17373515     0.11700
H1580       H  0.04674974  0.91948412  0.17606910     0.11700
H1581       H  0.08486614  0.95035234  0.23746194     0.11800
H1582       H  0.11539813  0.91746156  0.23496279     0.10600
C1583       C  0.81510620  0.81363172  0.18285433    -0.03200
C1584       C  0.84001560  0.80748836  0.18381327    -0.08900
C1585       C  0.85738331  0.82491125  0.19037946    -0.16600
C1586       C  0.85012359  0.84864386  0.19620675     0.25600
C1587       C  0.82536819  0.85484387  0.19582864    -0.18200
C1588       C  0.80794307  0.83745811  0.18919994    -0.07200
C1589       C  0.86823018  0.86684500  0.20138991    -0.13600
C1590       C  0.88382029  0.88201625  0.20432319    -0.13300
C1591       C  0.90256831  0.90020097  0.20619099     0.25500
C1592       C  0.90077526  0.91872622  0.22364413    -0.18700
C1593       C  0.91847550  0.93701929  0.22462758    -0.07200
C1594       C  0.93799230  0.93700907  0.20801989    -0.03300
C1595       C  0.93988485  0.91817434  0.19079251    -0.08600
C1596       C  0.92225975  0.89983147  0.18991835    -0.16200
H1597       H  0.84616686  0.78935613  0.17900562     0.11900
H1598       H  0.87652194  0.81997246  0.19051983     0.11200
H1599       H  0.81957413  0.87320415  0.20025695     0.11100
H1600       H  0.78892546  0.84277160  0.18871888     0.11700
H1601       H  0.88560460  0.91914944  0.23631308     0.11700
H1602       H  0.91689163  0.95130129  0.23816578     0.11700
H1603       H  0.95488482  0.91785440  0.17791895     0.11800
H1604       H  0.92380576  0.88555329  0.17636055     0.10600
C1605       C  0.81516108  0.18791125  0.17982313    -0.03200
C1606       C  0.81932288  0.18311697  0.20468990    -0.08900
C1607       C  0.83657193  0.16566474  0.21175673    -0.16600
C1608       C  0.84983629  0.15287544  0.19407340     0.25600
C1609       C  0.84594128  0.15767371  0.16935420    -0.18200
C1610       C  0.82877097  0.17504622  0.16225770    -0.07200
C1611       C  0.86750207  0.13477012  0.20097051    -0.13600
C1612       C  0.88274445  0.11938687  0.20468845    -0.13300
C1613       C  0.90137105  0.10104212  0.20674941     0.25500
C1614       C  0.92113889  0.10132450  0.19057349    -0.18700
C1615       C  0.93882643  0.08304149  0.19166099    -0.07200
C1616       C  0.93693866  0.06427282  0.20897030    -0.03300
C1617       C  0.91722405  0.06421107  0.22537439    -0.08600
C1618       C  0.89946651  0.08250289  0.22421471    -0.16200
H1619       H  0.80919298  0.19273700  0.21865165     0.11900
H1620       H  0.83950338  0.16210647  0.23095861     0.11200
H1621       H  0.85615088  0.14791524  0.15552273     0.11100
H1622       H  0.82610559  0.17830078  0.14297146     0.11700
H1623       H  0.92274292  0.11554771  0.17695128     0.11700
H1624       H  0.95390739  0.08337331  0.17888489     0.11700
H1625       H  0.91556989  0.04993987  0.23892652     0.11800
H1626       H  0.88420620  0.08209224  0.23677661     0.10600
C1627       C  0.18634071  0.18735875  0.18472126    -0.03200
C1628       C  0.19284667  0.16262898  0.18695962    -0.08900
C1629       C  0.17550985  0.14530005  0.19389987    -0.16600
C1630       C  0.15151415  0.15245143  0.19879002     0.25600
C1631       C  0.14501151  0.17706651  0.19731555    -0.18200
C1632       C  0.16230569  0.19444259  0.19034285    -0.07200
C1633       C  0.13324307  0.13437584  0.20380306    -0.13600
C1634       C  0.11766830  0.11913976  0.20645565    -0.13300
C1635       C  0.09890300  0.10096040  0.20809666     0.25500
C1636       C  0.10047396  0.08237438  0.22551764    -0.18700
C1637       C  0.08250601  0.06434179  0.22657221    -0.07200
C1638       C  0.06294486  0.06468662  0.21006650    -0.03300
C1639       C  0.06135567  0.08350760  0.19279346    -0.08600
C1640       C  0.07926464  0.10156841  0.19182561    -0.16200
H1641       H  0.21118958  0.15656097  0.18283185     0.11900
H1642       H  0.18069364  0.12626451  0.19493621     0.11200
H1643       H  0.12644853  0.18275885  0.20103513     0.11100
H1644       H  0.15672931  0.21332710  0.18891871     0.11700
H1645       H  0.11563848  0.08173908  0.23814436     0.11700
H1646       H  0.08393533  0.04997702  0.24004899     0.11700
H1647       H  0.04640193  0.08399885  0.17991450     0.11800
H1648       H  0.07793148  0.11586060  0.17825094     0.10600
loop_ 
_geom_bond_atom_site_label_1 
_geom_bond_atom_site_label_2 
_geom_bond_distance 
_geom_bond_site_symmetry_2 
_ccdc_geom_bond_type 
N1            C6   1.351       .  A
N1            C5   1.352   1_455  A
N1           H33   1.047       .  S
N2            C9   1.351       .  A
N2           C10   1.350   1_545  A
N3            C8   1.352       .  A
N3            C7   1.351   1_455  A
N3           H34   1.045       .  S
N4           C11   1.350       .  A
N4           C12   1.351   1_545  A
C5           C13   1.386       .  A
C5           C21   1.414       .  A
C6           C22   1.414       .  A
C6           C14   1.387       .  A
C7           C15   1.387       .  A
C7           C24   1.412       .  A
C8           C23   1.411       .  A
C8           C16   1.386       .  A
C9           C21   1.412       .  A
C9           C17   1.386       .  A
C10          C24   1.412       .  A
C10          C18   1.387       .  A
C11          C19   1.387       .  A
C11          C22   1.412       .  A
C12          C20   1.385       .  A
C12          C23   1.411       .  A
C13          C14   1.375   1_655  A
C13          H25   1.082       .  S
C14          H26   1.082       .  S
C15          C16   1.374   1_655  A
C15          H27   1.082       .  S
C16          H28   1.082       .  S
C17          C18   1.373   1_545  A
C17          H29   1.082       .  S
C18          H30   1.082       .  S
C19          C20   1.373   1_545  A
C19          H31   1.082       .  S
C20          H32   1.082       .  S
C21        C1616   1.486       .  S
C22        C1638   1.483       .  S
C23        C1572   1.485       .  S
C24        C1594   1.483       .  S
O35          C51   1.274       .  A
O35         Zn41   2.014       .  S
C36        C1495   1.484       .  S
C36          O52   1.275       .  A
C36          O49   1.276       .  A
O37          C50   1.276       .  A
O37         Cd44   2.078       .  S
O38          C56   1.276       .  A
O38         Cd47   2.071       .  S
O39          C53   1.275       .  A
O39         Cd43   2.068       .  S
O40          C51   1.274       .  A
O40         Cd43   2.071       .  S
Zn41         O52   2.016       .  S
Zn41         O54   2.017       .  S
Zn41         O46   1.936       .  S
O42          C53   1.276       .  A
O42         Cd47   2.075       .  S
Cd43         O45   2.065       .  S
Cd43         O46   2.001       .  S
Cd44         O48   2.071       .  S
Cd44         O57   2.075       .  S
Cd44         O46   2.005       .  S
O45          C55   1.275       .  A
O46         Cd47   2.005       .  S
Cd47         O49   2.078       .  S
O48          C55   1.275       .  A
C50        C1451   1.485       .  S
C50          O54   1.275       .  A
C51        C1473   1.482       .  S
C53        C1550   1.482       .  S
C55        C1627   1.480       .  S
C56        C1517   1.483       .  S
C56          O57   1.276       .  A
O58          C74   1.274       .  A
O58         Zn64   2.012       .  S
C59        C1605   1.481       .  S
C59          O75   1.273       .  A
C59          O72   1.275       .  A
O60          C73   1.275       .  A
O60         Cd67   2.072       .  S
O61          C79   1.276       .  A
O61         Cd70   2.077       .  S
O62          C76   1.276       .  A
O62         Cd66   2.076       .  S
O63          C74   1.275       .  A
O63         Cd66   2.075       .  S
Zn64         O75   2.005       .  S
Zn64         O77   2.015       .  S
Zn64         O69   1.938       .  S
O65          C76   1.276       .  A
O65         Cd70   2.071       .  S
Cd66         O68   2.072       .  S
Cd66         O69   2.003       .  S
Cd67         O71   2.068       .  S
Cd67         O80   2.070       .  S
Cd67         O69   2.001       .  S
O68          C78   1.276       .  A
O69         Cd70   2.004       .  S
Cd70         O72   2.076       .  S
O71          C78   1.275       .  A
C73        C1407   1.482       .  S
C73          O77   1.274       .  A
C74        C1429   1.481       .  S
C76        C1363   1.484       .  S
C78        C1385   1.482       .  S
C79        C1341   1.484       .  S
C79          O80   1.275       .  A
O81          C97   1.275       .  A
O81         Zn87   2.020       .  S
C82        C1231   1.483       .  S
C82          O98   1.275       .  A
C82          O95   1.275       .  A
O83          C96   1.274       .  A
O83         Cd90   2.067       .  S
O84         C102   1.275       .  A
O84         Cd93   2.072       .  S
O85          C99   1.276       .  A
O85         Cd89   2.073       .  S
O86          C97   1.275       .  A
O86         Cd89   2.080       .  S
Zn87         O98   2.017       .  S
Zn87        O100   2.014       .  S
Zn87         O92   1.938       .  S
O88          C99   1.275       .  A
O88         Cd93   2.067       .  S
Cd89         O91   2.074       .  S
Cd89         O92   2.003       .  S
Cd90         O94   2.070       .  S
Cd90        O103   2.071       .  S
Cd90         O92   2.005       .  S
O91         C101   1.276       .  A
O92         Cd93   2.002       .  S
Cd93         O95   2.072       .  S
O94         C101   1.275       .  A
C96        C1264   1.481       .  S
C96         O100   1.275       .  A
C97        C1275   1.487       .  S
C99        C1308   1.481       .  S
C101       C1330   1.483       .  S
C102       C1583   1.482       .  S
C102        O103   1.275       .  A
O104        C120   1.275       .  A
O104       Zn110   2.024       .  S
C105       C1121   1.482       .  S
C105        O121   1.275       .  A
C105        O118   1.275       .  A
O106        C119   1.275       .  A
O106       Cd113   2.073       .  S
O107        C125   1.276       .  A
O107       Cd116   2.080       .  S
O108        C122   1.275       .  A
O108       Cd112   2.067       .  S
O109        C120   1.276       .  A
O109       Cd112   2.080       .  S
Zn110       O121   2.013       .  S
Zn110       O123   2.027       .  S
Zn110       O115   1.940       .  S
O111        C122   1.275       .  A
O111       Cd116   2.069       .  S
Cd112       O114   2.067       .  S
Cd112       O115   2.003       .  S
Cd113       O117   2.071       .  S
Cd113       O126   2.066       .  S
Cd113       O115   2.002       .  S
O114        C124   1.275       .  A
O115       Cd116   2.006       .  S
Cd116       O118   2.070       .  S
O117        C124   1.276       .  A
C119       C1143   1.485       .  S
C119        O123   1.276       .  A
C120       C1165   1.486       .  S
C122       C1198   1.480       .  S
C124       C1220   1.481       .  S
C125       C1561   1.484       .  S
C125        O126   1.274       .  A
N127        C132   1.351       .  A
N127        C131   1.353       .  A
N127        H159   1.041       .  S
N128        C135   1.350   1_545  A
N128        C136   1.350       .  A
N129        C134   1.352       .  A
N129        C133   1.353       .  A
N129        H160   1.041       .  S
N130        C137   1.351   1_545  A
N130        C138   1.351       .  A
C131        C139   1.387       .  A
C131        C147   1.413       .  A
C132        C148   1.413       .  A
C132        C140   1.387       .  A
C133        C141   1.387       .  A
C133        C150   1.414       .  A
C134        C149   1.413       .  A
C134        C142   1.387       .  A
C135        C147   1.410       .  A
C135        C143   1.386       .  A
C136        C150   1.410       .  A
C136        C144   1.386       .  A
C137        C145   1.386       .  A
C137        C148   1.412       .  A
C138        C146   1.386       .  A
C138        C149   1.411       .  A
C139        C140   1.376       .  A
C139        H151   1.082       .  S
C140        H152   1.082       .  S
C141        C142   1.376       .  A
C141        H153   1.082       .  S
C142        H154   1.082       .  S
C143        C144   1.373   1_565  A
C143        H155   1.082       .  S
C144        H156   1.082       .  S
C145        C146   1.373   1_565  A
C145        H157   1.082       .  S
C146        H158   1.082       .  S
C147       C1187   1.486       .  S
C148       C1110   1.484       .  S
C149       C1088   1.484       .  S
C150       C1539   1.486       .  S
N161        C166   1.353   1_455  A
N161        C165   1.353       .  A
N161        H193   1.040       .  S
N162        C169   1.351       .  A
N162        C170   1.351       .  A
N163        C168   1.354   1_455  A
N163        C167   1.353       .  A
N163        H194   1.039       .  S
N164        C171   1.351       .  A
N164        C172   1.351       .  A
C165        C173   1.387       .  A
C165        C181   1.414       .  A
C166        C182   1.413       .  A
C166        C174   1.387       .  A
C167        C175   1.387       .  A
C167        C184   1.414       .  A
C168        C183   1.415       .  A
C168        C176   1.387       .  A
C169        C181   1.412       .  A
C169        C177   1.386       .  A
C170        C184   1.412       .  A
C170        C178   1.386       .  A
C171        C179   1.386       .  A
C171        C182   1.411       .  A
C172        C180   1.386       .  A
C172        C183   1.412       .  A
C173        C174   1.374   1_455  A
C173        H185   1.082       .  S
C174        H186   1.082       .  S
C175        C176   1.374   1_455  A
C175        H187   1.082       .  S
C176        H188   1.082       .  S
C177        C178   1.372       .  A
C177        H189   1.082       .  S
C178        H190   1.082       .  S
C179        C180   1.372       .  A
C179        H191   1.082       .  S
C180        H192   1.082       .  S
C181       C1528   1.484       .  S
C182       C1440   1.483       .  S
C183       C1033   1.486       .  S
C184       C1055   1.483       .  S
N195        C200   1.352       .  A
N195        C199   1.352   1_565  A
N195        H227   1.040       .  S
N196        C203   1.353       .  A
N196        C204   1.352       .  A
N197        C202   1.354       .  A
N197        C201   1.354   1_565  A
N197        H228   1.039       .  S
N198        C205   1.351       .  A
N198        C206   1.351       .  A
C199        C207   1.387       .  A
C199        C215   1.412       .  A
C200        C216   1.413       .  A
C200        C208   1.387       .  A
C201        C209   1.388       .  A
C201        C218   1.417       .  A
C202        C217   1.416       .  A
C202        C210   1.387       .  A
C203        C215   1.412       .  A
C203        C211   1.385       .  A
C204        C218   1.415       .  A
C204        C212   1.387       .  A
C205        C213   1.386       .  A
C205        C216   1.411       .  A
C206        C214   1.386       .  A
C206        C217   1.412       .  A
C207        C208   1.374   1_545  A
C207        H219   1.082       .  S
C208        H220   1.082       .  S
C209        C210   1.375   1_545  A
C209        H221   1.082       .  S
C210        H222   1.082       .  S
C211        C212   1.372       .  A
C211        H223   1.082       .  S
C212        H224   1.082       .  S
C213        C214   1.372       .  A
C213        H225   1.082       .  S
C214        H226   1.082       .  S
C215       C1418   1.486       .  S
C216       C1319   1.484       .  S
C217       C1000   1.486       .  S
C218       C1022   1.489       .  S
N229        C234   1.353       .  A
N229        C233   1.353       .  A
N229        H261   1.040       .  S
N230        C237   1.352       .  A
N230        C238   1.351   1_455  A
N231        C236   1.354       .  A
N231        C235   1.354       .  A
N231        H262   1.040       .  S
N232        C239   1.350       .  A
N232        C240   1.351   1_455  A
C233        C241   1.387       .  A
C233        C249   1.412       .  A
C234        C250   1.413       .  A
C234        C242   1.387       .  A
C235        C243   1.388       .  A
C235        C252   1.416       .  A
C236        C251   1.413       .  A
C236        C244   1.386       .  A
C237        C249   1.412       .  A
C237        C245   1.386       .  A
C238        C252   1.414       .  A
C238        C246   1.387       .  A
C239        C247   1.387       .  A
C239        C250   1.411       .  A
C240        C248   1.386       .  A
C240        C251   1.410       .  A
C241        C242   1.373       .  A
C241        H253   1.082       .  S
C242        H254   1.082       .  S
C243        C244   1.373       .  A
C243        H255   1.082       .  S
C244        H256   1.082       .  S
C245        C246   1.372   1_455  A
C245        H257   1.082       .  S
C246        H258   1.082       .  S
C247        C248   1.372   1_455  A
C247        H259   1.082       .  S
C248        H260   1.082       .  S
C249        C956   1.486       .  S
C250       C1209   1.482       .  S
C251       C1297   1.483       .  S
C252        C967   1.488       .  S
O263        C279   1.274       .  A
O263       Zn269   2.015       .  S
C264        C901   1.482       .  S
C264        O280   1.275       .  A
C264        O277   1.275       .  A
O265        C278   1.275       .  A
O265       Cd272   2.071       .  S
O266        C284   1.276       .  A
O266       Cd275   2.070       .  S
O267        C281   1.275       .  A
O267       Cd271   2.071       .  S
O268        C279   1.275       .  A
O268       Cd271   2.076       .  S
Zn269       O280   2.017       .  S
Zn269       O282   2.027       .  S
Zn269       O274   1.940       .  S
O270        C281   1.275       .  A
O270       Cd275   2.071       .  S
Cd271       O273   2.070       .  S
Cd271       O274   2.001       .  S
Cd272       O276   2.070       .  S
Cd272       O285   2.069       .  S
Cd272       O274   2.002       .  S
O273        C283   1.275       .  A
O274       Cd275   2.004       .  S
Cd275       O277   2.071       .  S
O276        C283   1.275       .  A
C278        C857   1.485       .  S
C278        O282   1.276       .  A
C279        C890   1.483       .  S
C281       C1099   1.482       .  S
C283        C923   1.482       .  S
C284        C945   1.481       .  S
C284        O285   1.275       .  A
N286        C291   1.352       .  A
N286        C290   1.352   1_455  A
N286        H318   1.038       .  S
N287        C294   1.351       .  A
N287        C295   1.351   1_565  A
N288        C293   1.352       .  A
N288        C292   1.352   1_455  A
N288        H319   1.038       .  S
N289        C296   1.351   1_545  A
N289        C297   1.351       .  A
C290        C298   1.387       .  A
C290        C306   1.413       .  A
C291        C307   1.412       .  A
C291        C299   1.387       .  A
C292        C300   1.387       .  A
C292        C309   1.415       .  A
C293        C308   1.412       .  A
C293        C301   1.386       .  A
C294        C306   1.412       .  A
C294        C302   1.386       .  A
C295        C309   1.413       .  A
C295        C303   1.386       .  A
C296        C304   1.386       .  A
C296        C307   1.411       .  A
C297        C305   1.386       .  A
C297        C308   1.411       .  A
C298        C299   1.375   1_655  A
C298        H310   1.082       .  S
C299        H311   1.082       .  S
C300        C301   1.375   1_655  A
C300        H312   1.082       .  S
C301        H313   1.082       .  S
C302        C303   1.373   1_565  A
C302        H314   1.082       .  S
C303        H315   1.082       .  S
C304        C305   1.371   1_565  A
C304        H316   1.082       .  S
C305        H317   1.082       .  S
C306        C802   1.481       .  S
C307        C934   1.482       .  S
C308        C835   1.479       .  S
C309        C824   1.484       .  S
O320        C336   1.274       .  A
O320       Zn326   2.010       .  S
C321        C736   1.479       .  S
C321        O337   1.273       .  A
C321        O334   1.275       .  A
O322        C335   1.275       .  A
O322       Cd329   2.073       .  S
O323        C341   1.275       .  A
O323       Cd332   2.067       .  S
O324        C338   1.275       .  A
O324       Cd328   2.070       .  S
O325        C336   1.275       .  A
O325       Cd328   2.073       .  S
Zn326       O337   2.004       .  S
Zn326       O339   2.009       .  S
Zn326       O331   1.932       .  S
O327        C338   1.275       .  A
O327       Cd332   2.066       .  S
Cd328       O330   2.065       .  S
Cd328       O331   2.000       .  S
Cd329       O333   2.068       .  S
Cd329       O342   2.069       .  S
Cd329       O331   2.001       .  S
O330        C340   1.275       .  A
O331       Cd332   2.000       .  S
Cd332       O334   2.070       .  S
O333        C340   1.275       .  A
C335        C758   1.481       .  S
C335        O339   1.274       .  A
C336        C780   1.481       .  S
C338       C1077   1.482       .  S
C340       C1066   1.480       .  S
C341        C846   1.481       .  S
C341        O342   1.275       .  A
O343        C359   1.274       .  A
O343       Zn349   2.012       .  S
C344        C692   1.485       .  S
C344        O360   1.276       .  A
C344        O357   1.275       .  A
O345        C358   1.275       .  A
O345       Cd352   2.071       .  S
O346        C364   1.276       .  A
O346       Cd355   2.076       .  S
O347        C361   1.275       .  A
O347       Cd351   2.068       .  S
O348        C359   1.275       .  A
O348       Cd351   2.076       .  S
Zn349       O360   2.023       .  S
Zn349       O362   2.010       .  S
Zn349       O354   1.940       .  S
O350        C361   1.276       .  A
O350       Cd355   2.070       .  S
Cd351       O353   2.069       .  S
Cd351       O354   2.001       .  S
Cd352       O356   2.075       .  S
Cd352       O365   2.069       .  S
Cd352       O354   2.002       .  S
O353        C363   1.275       .  A
O354       Cd355   2.003       .  S
Cd355       O357   2.075       .  S
O356        C363   1.275       .  A
C358        C703   1.480       .  S
C358        O362   1.274       .  A
C359        C659   1.483       .  S
C361        C813   1.482       .  S
C363       C1044   1.484       .  S
C364       C1011   1.483       .  S
C364        O365   1.275       .  A
O366        C382   1.274       .  A
O366       Zn372   2.013       .  S
C367        C615   1.481       .  S
C367        O383   1.274       .  A
C367        O380   1.275       .  A
O368        C381   1.275       .  A
O368       Cd375   2.070       .  S
O369        C387   1.275       .  A
O369       Cd378   2.070       .  S
O370        C384   1.276       .  A
O370       Cd374   2.073       .  S
O371        C382   1.276       .  A
O371       Cd374   2.079       .  S
Zn372       O383   2.009       .  S
Zn372       O385   2.004       .  S
Zn372       O377   1.935       .  S
O373        C384   1.275       .  A
O373       Cd378   2.067       .  S
Cd374       O376   2.074       .  S
Cd374       O377   2.003       .  S
Cd375       O379   2.065       .  S
Cd375       O388   2.071       .  S
Cd375       O377   2.002       .  S
O376        C386   1.276       .  A
O377       Cd378   2.001       .  S
Cd378       O380   2.075       .  S
O379        C386   1.275       .  A
C381        C648   1.479       .  S
C381        O385   1.273       .  A
C382        C593   1.484       .  S
C384        C791   1.480       .  S
C386        C989   1.482       .  S
C387        C978   1.483       .  S
C387        O388   1.275       .  A
N389        C394   1.351       .  A
N389        C393   1.353       .  A
N389        H421   1.038       .  S
N390        C397   1.351       .  A
N390        C398   1.351       .  A
N391        C396   1.352       .  A
N391        C395   1.352       .  A
N391        H422   1.039       .  S
N392        C399   1.352       .  A
N392        C400   1.352       .  A
C393        C401   1.387       .  A
C393        C409   1.415       .  A
C394        C410   1.413       .  A
C394        C402   1.387       .  A
C395        C403   1.386       .  A
C395        C412   1.412       .  A
C396        C411   1.414       .  A
C396        C404   1.387       .  A
C397        C409   1.413       .  A
C397        C405   1.387       .  A
C398        C412   1.411       .  A
C398        C406   1.386       .  A
C399        C407   1.386       .  A
C399        C410   1.413       .  A
C400        C408   1.386       .  A
C400        C411   1.414       .  A
C401        C402   1.377       .  A
C401        H413   1.082       .  S
C402        H414   1.082       .  S
C403        C404   1.375       .  A
C403        H415   1.082       .  S
C404        H416   1.082       .  S
C405        C406   1.371       .  A
C405        H417   1.082       .  S
C406        H418   1.082       .  S
C407        C408   1.372       .  A
C407        H419   1.082       .  S
C408        H420   1.082       .  S
C409        C714   1.486       .  S
C410        C769   1.482       .  S
C411        C912   1.488       .  S
C412        C637   1.482       .  S
N423        C428   1.352       .  A
N423        C427   1.355       .  A
N423        H455   1.040       .  S
N424        C431   1.351       .  A
N424        C432   1.350       .  A
N425        C430   1.353       .  A
N425        C429   1.352       .  A
N425        H456   1.040       .  S
N426        C433   1.352       .  A
N426        C434   1.353       .  A
C427        C435   1.386       .  A
C427        C443   1.415       .  A
C428        C444   1.416       .  A
C428        C436   1.388       .  A
C429        C437   1.387       .  A
C429        C446   1.412       .  A
C430        C445   1.414       .  A
C430        C438   1.387       .  A
C431        C443   1.412       .  A
C431        C439   1.386       .  A
C432        C446   1.409       .  A
C432        C440   1.386       .  A
C433        C441   1.387       .  A
C433        C444   1.416       .  A
C434        C442   1.385       .  A
C434        C445   1.414       .  A
C435        C436   1.377       .  A
C435        H447   1.082       .  S
C436        H448   1.082       .  S
C437        C438   1.375       .  A
C437        H449   1.082       .  S
C438        H450   1.082       .  S
C439        C440   1.373       .  A
C439        H451   1.082       .  S
C440        H452   1.082       .  S
C441        C442   1.374       .  A
C441        H453   1.082       .  S
C442        H454   1.082       .  S
C443       C1286   1.491       .  S
C444       C1176   1.489       .  S
C445       C1506   1.490       .  S
C446       C1396   1.479       .  S
N457        C462   1.352       .  A
N457        C461   1.352       .  A
N457        H489   1.039       .  S
N458        C465   1.352       .  A
N458        C466   1.352       .  A
N459        C464   1.353       .  A
N459        C463   1.353       .  A
N459        H490   1.039       .  S
N460        C467   1.351       .  A
N460        C468   1.351       .  A
C461        C469   1.387       .  A
C461        C477   1.414       .  A
C462        C478   1.412       .  A
C462        C470   1.386       .  A
C463        C471   1.387       .  A
C463        C480   1.415       .  A
C464        C479   1.416       .  A
C464        C472   1.387       .  A
C465        C477   1.413       .  A
C465        C473   1.386       .  A
C466        C480   1.413       .  A
C466        C474   1.386       .  A
C467        C475   1.386       .  A
C467        C478   1.411       .  A
C468        C476   1.387       .  A
C468        C479   1.413       .  A
C469        C470   1.376       .  A
C469        H481   1.082       .  S
C470        H482   1.082       .  S
C471        C472   1.376       .  A
C471        H483   1.082       .  S
C472        H484   1.082       .  S
C473        C474   1.372       .  A
C473        H485   1.082       .  S
C474        H486   1.082       .  S
C475        C476   1.371       .  A
C475        H487   1.082       .  S
C476        H488   1.082       .  S
C477        C670   1.486       .  S
C478        C626   1.483       .  S
C479       C1242   1.489       .  S
C480       C1374   1.488       .  S
N491        C496   1.353       .  A
N491        C495   1.352       .  A
N491        H523   1.039       .  S
N492        C499   1.352       .  A
N492        C500   1.353       .  A
N493        C498   1.352       .  A
N493        C497   1.353       .  A
N493        H524   1.040       .  S
N494        C501   1.352       .  A
N494        C502   1.352       .  A
C495        C503   1.387       .  A
C495        C511   1.414       .  A
C496        C512   1.415       .  A
C496        C504   1.387       .  A
C497        C505   1.386       .  A
C497        C514   1.414       .  A
C498        C513   1.415       .  A
C498        C506   1.387       .  A
C499        C511   1.414       .  A
C499        C507   1.386       .  A
C500        C514   1.414       .  A
C500        C508   1.386       .  A
C501        C509   1.386       .  A
C501        C512   1.413       .  A
C502        C510   1.387       .  A
C502        C513   1.415       .  A
C503        C504   1.376       .  A
C503        H515   1.082       .  S
C504        H516   1.082       .  S
C505        C506   1.376       .  A
C505        H517   1.082       .  S
C506        H518   1.082       .  S
C507        C508   1.373       .  A
C507        H519   1.082       .  S
C508        H520   1.082       .  S
C509        C510   1.373       .  A
C509        H521   1.082       .  S
C510        H522   1.082       .  S
C511       C1253   1.485       .  S
C512        C604   1.489       .  S
C513        C879   1.489       .  S
C514       C1132   1.489       .  S
N525        C530   1.354       .  A
N525        C529   1.354       .  A
N525        H557   1.040       .  S
N526        C533   1.352       .  A
N526        C534   1.351       .  A
N527        C532   1.354       .  A
N527        C531   1.354       .  A
N527        H558   1.040       .  S
N528        C535   1.350       .  A
N528        C536   1.350       .  A
C529        C537   1.386       .  A
C529        C545   1.414       .  A
C530        C546   1.416       .  A
C530        C538   1.388       .  A
C531        C539   1.387       .  A
C531        C548   1.415       .  A
C532        C547   1.415       .  A
C532        C540   1.387       .  A
C533        C545   1.412       .  A
C533        C541   1.386       .  A
C534        C548   1.413       .  A
C534        C542   1.386       .  A
C535        C543   1.387       .  A
C535        C546   1.412       .  A
C536        C544   1.386       .  A
C536        C547   1.410       .  A
C537        C538   1.374       .  A
C537        H549   1.082       .  S
C538        H550   1.082       .  S
C539        C540   1.375       .  A
C539        H551   1.082       .  S
C540        H552   1.082       .  S
C541        C542   1.373       .  A
C541        H553   1.082       .  S
C542        H554   1.082       .  S
C543        C544   1.372       .  A
C543        H555   1.082       .  S
C544        H556   1.082       .  S
C545       C1462   1.487       .  S
C546        C747   1.486       .  S
C547        C868   1.485       .  S
C548       C1154   1.486       .  S
N559        C564   1.352       .  A
N559        C563   1.351       .  A
N559        H591   1.038       .  S
N560        C567   1.352       .  A
N560        C568   1.352       .  A
N561        C566   1.353       .  A
N561        C565   1.352       .  A
N561        H592   1.039       .  S
N562        C569   1.350       .  A
N562        C570   1.350       .  A
C563        C571   1.387       .  A
C563        C579   1.413       .  A
C564        C580   1.412       .  A
C564        C572   1.387       .  A
C565        C573   1.387       .  A
C565        C582   1.414       .  A
C566        C581   1.413       .  A
C566        C574   1.387       .  A
C567        C579   1.414       .  A
C567        C575   1.386       .  A
C568        C582   1.414       .  A
C568        C576   1.386       .  A
C569        C577   1.386       .  A
C569        C580   1.411       .  A
C570        C578   1.386       .  A
C570        C581   1.410       .  A
C571        C572   1.376       .  A
C571        H583   1.082       .  S
C572        H584   1.082       .  S
C573        C574   1.376       .  A
C573        H585   1.082       .  S
C574        H586   1.082       .  S
C575        C576   1.374       .  A
C575        H587   1.082       .  S
C576        H588   1.082       .  S
C577        C578   1.371       .  A
C577        H589   1.082       .  S
C578        H590   1.082       .  S
C579        C681   1.485       .  S
C580        C725   1.481       .  S
C581       C1484   1.483       .  S
C582       C1352   1.486       .  S
C593        C594   1.408       .  A
C593        C598   1.408       .  A
C594        C595   1.397       .  A
C594        H607   1.083       .  S
C595        C596   1.399       .  A
C595        H608   1.084       .  S
C596        C597   1.401       .  A
C596        C599   1.442       .  S
C597        C598   1.402       .  A
C597        H609   1.083       .  S
C598        H610   1.083       .  S
C599        C600   1.207       .  T
C600        C601   1.442       .  S
C601        C602   1.401       .  A
C601        C606   1.401       .  A
C602        C603   1.400       .  A
C602        H611   1.083       .  S
C603        C604   1.406       .  A
C603        H612   1.083       .  S
C604        C605   1.404       .  A
C605        C606   1.398       .  A
C605        H613   1.083       .  S
C606        H614   1.084       .  S
C615        C616   1.408       .  A
C615        C620   1.408       .  A
C616        C617   1.396       .  A
C616        H629   1.083       .  S
C617        C618   1.398       .  A
C617        H630   1.084       .  S
C618        C619   1.400       .  A
C618        C621   1.437       .  S
C619        C620   1.400       .  A
C619        H631   1.083       .  S
C620        H632   1.083       .  S
C621        C622   1.205       .  T
C622        C623   1.437       .  S
C623        C624   1.400       .  A
C623        C628   1.400       .  A
C624        C625   1.398       .  A
C624        H633   1.083       .  S
C625        C626   1.404       .  A
C625        H634   1.083       .  S
C626        C627   1.403       .  A
C627        C628   1.397       .  A
C627        H635   1.083       .  S
C628        H636   1.084       .  S
C637        C638   1.403       .  A
C637        C642   1.404       .  A
C638        C639   1.397       .  A
C638        H651   1.083       .  S
C639        C640   1.400       .  A
C639        H652   1.084       .  S
C640        C641   1.400       .  A
C640        C643   1.436       .  S
C641        C642   1.397       .  A
C641        H653   1.083       .  S
C642        H654   1.083       .  S
C643        C644   1.204       .  T
C644        C645   1.436       .  S
C645        C646   1.398       .  A
C645        C650   1.400       .  A
C646        C647   1.395       .  A
C646        H655   1.084       .  S
C647        C648   1.407       .  A
C647        H656   1.083       .  S
C648        C649   1.408       .  A
C649        C650   1.399       .  A
C649        H657   1.083       .  S
C650        H658   1.083       .  S
C659        C660   1.408       .  A
C659        C664   1.408       .  A
C660        C661   1.397       .  A
C660        H673   1.083       .  S
C661        C662   1.399       .  A
C661        H674   1.084       .  S
C662        C663   1.400       .  A
C662        C665   1.439       .  S
C663        C664   1.400       .  A
C663        H675   1.083       .  S
C664        H676   1.083       .  S
C665        C666   1.206       .  T
C666        C667   1.439       .  S
C667        C668   1.401       .  A
C667        C672   1.399       .  A
C668        C669   1.400       .  A
C668        H677   1.083       .  S
C669        C670   1.405       .  A
C669        H678   1.083       .  S
C670        C671   1.404       .  A
C671        C672   1.396       .  A
C671        H679   1.083       .  S
C672        H680   1.084       .  S
C681        C682   1.404       .  A
C681        C686   1.404       .  A
C682        C683   1.397       .  A
C682        H695   1.083       .  S
C683        C684   1.400       .  A
C683        H696   1.084       .  S
C684        C685   1.401       .  A
C684        C687   1.440       .  S
C685        C686   1.400       .  A
C685        H697   1.083       .  S
C686        H698   1.083       .  S
C687        C688   1.206       .  T
C688        C689   1.441       .  S
C689        C690   1.400       .  A
C689        C694   1.399       .  A
C690        C691   1.401       .  A
C690        H699   1.083       .  S
C691        C692   1.409       .  A
C691        H700   1.083       .  S
C692        C693   1.408       .  A
C693        C694   1.397       .  A
C693        H701   1.083       .  S
C694        H702   1.084       .  S
C703        C704   1.408       .  A
C703        C708   1.407       .  A
C704        C705   1.397       .  A
C704        H717   1.083       .  S
C705        C706   1.399       .  A
C705        H718   1.084       .  S
C706        C707   1.399       .  A
C706        C709   1.438       .  S
C707        C708   1.399       .  A
C707        H719   1.083       .  S
C708        H720   1.083       .  S
C709        C710   1.205       .  T
C710        C711   1.438       .  S
C711        C712   1.400       .  A
C711        C716   1.400       .  A
C712        C713   1.399       .  A
C712        H721   1.083       .  S
C713        C714   1.406       .  A
C713        H722   1.083       .  S
C714        C715   1.404       .  A
C715        C716   1.397       .  A
C715        H723   1.083       .  S
C716        H724   1.084       .  S
C725        C726   1.403       .  A
C725        C730   1.404       .  A
C726        C727   1.396       .  A
C726        H739   1.083       .  S
C727        C728   1.400       .  A
C727        H740   1.084       .  S
C728        C729   1.400       .  A
C728        C731   1.436       .  S
C729        C730   1.398       .  A
C729        H741   1.083       .  S
C730        H742   1.083       .  S
C731        C732   1.204       .  T
C732        C733   1.436       .  S
C733        C734   1.400       .  A
C733        C738   1.397       .  A
C734        C735   1.399       .  A
C734        H743   1.083       .  S
C735        C736   1.408       .  A
C735        H744   1.083       .  S
C736        C737   1.407       .  A
C737        C738   1.394       .  A
C737        H745   1.083       .  S
C738        H746   1.084       .  S
C747        C748   1.405       .  A
C747        C752   1.405       .  A
C748        C749   1.397       .  A
C748        H761   1.083       .  S
C749        C750   1.400       .  A
C749        H762   1.084       .  S
C750        C751   1.400       .  A
C750        C753   1.437       .  S
C751        C752   1.398       .  A
C751        H763   1.083       .  S
C752        H764   1.083       .  S
C753        C754   1.204       .  T
C754        C755   1.437       .  S
C755        C756   1.399       .  A
C755        C760   1.398       .  A
C756        C757   1.398       .  A
C756        H765   1.083       .  S
C757        C758   1.407       .  A
C757        H766   1.083       .  S
C758        C759   1.408       .  A
C759        C760   1.397       .  A
C759        H767   1.083       .  S
C760        H768   1.084       .  S
C769        C770   1.403       .  A
C769        C774   1.403       .  A
C770        C771   1.399       .  A
C770        H783   1.083       .  S
C771        C772   1.401       .  A
C771        H784   1.083       .  S
C772        C773   1.401       .  A
C772        C775   1.439       .  S
C773        C774   1.397       .  A
C773        H785   1.084       .  S
C774        H786   1.083       .  S
C775        C776   1.205       .  T
C776        C777   1.439       .  S
C777        C778   1.398       .  A
C777        C782   1.400       .  A
C778        C779   1.395       .  A
C778        H787   1.084       .  S
C779        C780   1.407       .  A
C779        H788   1.083       .  S
C780        C781   1.408       .  A
C781        C782   1.401       .  A
C781        H789   1.083       .  S
C782        H790   1.083       .  S
C791        C792   1.407       .  A
C791        C796   1.407       .  A
C792        C793   1.398       .  A
C792        H805   1.083       .  S
C793        C794   1.399       .  A
C793        H806   1.083       .  S
C794        C795   1.399       .  A
C794        C797   1.438       .  S
C795        C796   1.397       .  A
C795        H807   1.084       .  S
C796        H808   1.083       .  S
C797        C798   1.205       .  T
C798        C799   1.438       .  S
C799        C800   1.400       .  A
C799        C804   1.401       .  A
C800        C801   1.396       .  A
C800        H809   1.084       .  S
C801        C802   1.403       .  A
C801        H810   1.083       .  S
C802        C803   1.403       .  A
C803        C804   1.399       .  A
C803        H811   1.083       .  S
C804        H812   1.083       .  S
C813        C814   1.408       .  A
C813        C818   1.408       .  A
C814        C815   1.398       .  A
C814        H827   1.083       .  S
C815        C816   1.399       .  A
C815        H828   1.084       .  S
C816        C817   1.399       .  A
C816        C819   1.438       .  S
C817        C818   1.398       .  A
C817        H829   1.084       .  S
C818        H830   1.083       .  S
C819        C820   1.205       .  T
C820        C821   1.439       .  S
C821        C822   1.400       .  A
C821        C826   1.401       .  A
C822        C823   1.397       .  A
C822        H831   1.084       .  S
C823        C824   1.404       .  A
C823        H832   1.083       .  S
C824        C825   1.404       .  A
C825        C826   1.399       .  A
C825        H833   1.083       .  S
C826        H834   1.083       .  S
C835        C836   1.402       .  A
C835        C840   1.403       .  A
C836        C837   1.396       .  A
C836        H849   1.083       .  S
C837        C838   1.400       .  A
C837        H850   1.083       .  S
C838        C839   1.401       .  A
C838        C841   1.437       .  S
C839        C840   1.399       .  A
C839        H851   1.083       .  S
C840        H852   1.083       .  S
C841        C842   1.204       .  T
C842        C843   1.437       .  S
C843        C844   1.399       .  A
C843        C848   1.398       .  A
C844        C845   1.399       .  A
C844        H853   1.084       .  S
C845        C846   1.408       .  A
C845        H854   1.083       .  S
C846        C847   1.408       .  A
C847        C848   1.397       .  A
C847        H855   1.083       .  S
C848        H856   1.084       .  S
C857        C858   1.408       .  A
C857        C862   1.409       .  A
C858        C859   1.398       .  A
C858        H871   1.083       .  S
C859        C860   1.399       .  A
C859        H872   1.084       .  S
C860        C861   1.400       .  A
C860        C863   1.441       .  S
C861        C862   1.400       .  A
C861        H873   1.083       .  S
C862        H874   1.083       .  S
C863        C864   1.207       .  T
C864        C865   1.441       .  S
C865        C866   1.402       .  A
C865        C870   1.400       .  A
C866        C867   1.400       .  A
C866        H875   1.083       .  S
C867        C868   1.404       .  A
C867        H876   1.083       .  S
C868        C869   1.404       .  A
C869        C870   1.397       .  A
C869        H877   1.083       .  S
C870        H878   1.084       .  S
C879        C880   1.405       .  A
C879        C884   1.406       .  A
C880        C881   1.397       .  A
C880        H893   1.083       .  S
C881        C882   1.400       .  A
C881        H894   1.084       .  S
C882        C883   1.401       .  A
C882        C885   1.440       .  S
C883        C884   1.400       .  A
C883        H895   1.083       .  S
C884        H896   1.083       .  S
C885        C886   1.206       .  T
C886        C887   1.441       .  S
C887        C888   1.400       .  A
C887        C892   1.399       .  A
C888        C889   1.401       .  A
C888        H897   1.083       .  S
C889        C890   1.408       .  A
C889        H898   1.083       .  S
C890        C891   1.408       .  A
C891        C892   1.397       .  A
C891        H899   1.083       .  S
C892        H900   1.084       .  S
C901        C902   1.408       .  A
C901        C906   1.407       .  A
C902        C903   1.400       .  A
C902        H915   1.083       .  S
C903        C904   1.400       .  A
C903        H916   1.083       .  S
C904        C905   1.399       .  A
C904        C907   1.439       .  S
C905        C906   1.396       .  A
C905        H917   1.084       .  S
C906        H918   1.083       .  S
C907        C908   1.206       .  T
C908        C909   1.439       .  S
C909        C910   1.399       .  A
C909        C914   1.401       .  A
C910        C911   1.396       .  A
C910        H919   1.084       .  S
C911        C912   1.405       .  A
C911        H920   1.083       .  S
C912        C913   1.406       .  A
C913        C914   1.400       .  A
C913        H921   1.083       .  S
C914        H922   1.083       .  S
C923        C924   1.408       .  A
C923        C928   1.408       .  A
C924        C925   1.398       .  A
C924        H937   1.083       .  S
C925        C926   1.399       .  A
C925        H938   1.084       .  S
C926        C927   1.398       .  A
C926        C929   1.438       .  S
C927        C928   1.397       .  A
C927        H939   1.084       .  S
C928        H940   1.083       .  S
C929        C930   1.205       .  T
C930        C931   1.437       .  S
C931        C932   1.400       .  A
C931        C936   1.401       .  A
C932        C933   1.396       .  A
C932        H941   1.084       .  S
C933        C934   1.403       .  A
C933        H942   1.083       .  S
C934        C935   1.404       .  A
C935        C936   1.399       .  A
C935        H943   1.083       .  S
C936        H944   1.083       .  S
C945        C946   1.408       .  A
C945        C950   1.408       .  A
C946        C947   1.398       .  A
C946        H959   1.083       .  S
C947        C948   1.399       .  A
C947        H960   1.084       .  S
C948        C949   1.399       .  A
C948        C951   1.438       .  S
C949        C950   1.398       .  A
C949        H961   1.083       .  S
C950        H962   1.083       .  S
C951        C952   1.205       .  T
C952        C953   1.438       .  S
C953        C954   1.400       .  A
C953        C958   1.400       .  A
C954        C955   1.399       .  A
C954        H963   1.083       .  S
C955        C956   1.405       .  A
C955        H964   1.083       .  S
C956        C957   1.404       .  A
C957        C958   1.397       .  A
C957        H965   1.083       .  S
C958        H966   1.084       .  S
C967        C968   1.406       .  A
C967        C972   1.405       .  A
C968        C969   1.399       .  A
C968        H981   1.083       .  S
C969        C970   1.401       .  A
C969        H982   1.083       .  S
C970        C971   1.399       .  A
C970        C973   1.438       .  S
C971        C972   1.396       .  A
C971        H983   1.084       .  S
C972        H984   1.083       .  S
C973        C974   1.205       .  T
C974        C975   1.439       .  S
C975        C976   1.399       .  A
C975        C980   1.399       .  A
C976        C977   1.398       .  A
C976        H985   1.084       .  S
C977        C978   1.408       .  A
C977        H986   1.083       .  S
C978        C979   1.408       .  A
C979        C980   1.398       .  A
C979        H987   1.083       .  S
C980        H988   1.084       .  S
C989        C990   1.408       .  A
C989        C994   1.408       .  A
C990        C991   1.398       .  A
C990       H1003   1.083       .  S
C991        C992   1.399       .  A
C991       H1004   1.084       .  S
C992        C993   1.399       .  A
C992        C995   1.439       .  S
C993        C994   1.398       .  A
C993       H1005   1.083       .  S
C994       H1006   1.083       .  S
C995        C996   1.206       .  T
C996        C997   1.439       .  S
C997        C998   1.400       .  A
C997       C1002   1.401       .  A
C998        C999   1.397       .  A
C998       H1007   1.084       .  S
C999       C1000   1.404       .  A
C999       H1008   1.083       .  S
C1000      C1001   1.404       .  A
C1001      C1002   1.399       .  A
C1001      H1009   1.083       .  S
C1002      H1010   1.083       .  S
C1011      C1012   1.408       .  A
C1011      C1016   1.408       .  A
C1012      C1013   1.399       .  A
C1012      H1025   1.083       .  S
C1013      C1014   1.400       .  A
C1013      H1026   1.083       .  S
C1014      C1015   1.399       .  A
C1014      C1017   1.440       .  S
C1015      C1016   1.398       .  A
C1015      H1027   1.084       .  S
C1016      H1028   1.083       .  S
C1017      C1018   1.206       .  T
C1018      C1019   1.440       .  S
C1019      C1020   1.400       .  A
C1019      C1024   1.401       .  A
C1020      C1021   1.397       .  A
C1020      H1029   1.084       .  S
C1021      C1022   1.405       .  A
C1021      H1030   1.083       .  S
C1022      C1023   1.406       .  A
C1023      C1024   1.400       .  A
C1023      H1031   1.083       .  S
C1024      H1032   1.083       .  S
C1033      C1034   1.404       .  A
C1033      C1038   1.405       .  A
C1034      C1035   1.396       .  A
C1034      H1047   1.083       .  S
C1035      C1036   1.400       .  A
C1035      H1048   1.083       .  S
C1036      C1037   1.401       .  A
C1036      C1039   1.440       .  S
C1037      C1038   1.400       .  A
C1037      H1049   1.083       .  S
C1038      H1050   1.083       .  S
C1039      C1040   1.206       .  T
C1040      C1041   1.440       .  S
C1041      C1042   1.399       .  A
C1041      C1046   1.400       .  A
C1042      C1043   1.398       .  A
C1042      H1051   1.084       .  S
C1043      C1044   1.408       .  A
C1043      H1052   1.083       .  S
C1044      C1045   1.408       .  A
C1045      C1046   1.399       .  A
C1045      H1053   1.083       .  S
C1046      H1054   1.084       .  S
C1055      C1056   1.403       .  A
C1055      C1060   1.404       .  A
C1056      C1057   1.396       .  A
C1056      H1069   1.083       .  S
C1057      C1058   1.400       .  A
C1057      H1070   1.083       .  S
C1058      C1059   1.401       .  A
C1058      C1061   1.438       .  S
C1059      C1060   1.399       .  A
C1059      H1071   1.083       .  S
C1060      H1072   1.083       .  S
C1061      C1062   1.205       .  T
C1062      C1063   1.437       .  S
C1063      C1064   1.399       .  A
C1063      C1068   1.399       .  A
C1064      C1065   1.397       .  A
C1064      H1073   1.084       .  S
C1065      C1066   1.408       .  A
C1065      H1074   1.083       .  S
C1066      C1067   1.407       .  A
C1067      C1068   1.397       .  A
C1067      H1075   1.083       .  S
C1068      H1076   1.084       .  S
C1077      C1078   1.408       .  A
C1077      C1082   1.408       .  A
C1078      C1079   1.398       .  A
C1078      H1091   1.083       .  S
C1079      C1080   1.399       .  A
C1079      H1092   1.084       .  S
C1080      C1081   1.399       .  A
C1080      C1083   1.439       .  S
C1081      C1082   1.398       .  A
C1081      H1093   1.084       .  S
C1082      H1094   1.083       .  S
C1083      C1084   1.205       .  T
C1084      C1085   1.439       .  S
C1085      C1086   1.401       .  A
C1085      C1090   1.400       .  A
C1086      C1087   1.399       .  A
C1086      H1095   1.083       .  S
C1087      C1088   1.404       .  A
C1087      H1096   1.083       .  S
C1088      C1089   1.404       .  A
C1089      C1090   1.397       .  A
C1089      H1097   1.083       .  S
C1090      H1098   1.083       .  S
C1099      C1100   1.408       .  A
C1099      C1104   1.408       .  A
C1100      C1101   1.397       .  A
C1100      H1113   1.083       .  S
C1101      C1102   1.399       .  A
C1101      H1114   1.084       .  S
C1102      C1103   1.399       .  A
C1102      C1105   1.438       .  S
C1103      C1104   1.399       .  A
C1103      H1115   1.084       .  S
C1104      H1116   1.083       .  S
C1105      C1106   1.205       .  T
C1106      C1107   1.438       .  S
C1107      C1108   1.400       .  A
C1107      C1112   1.400       .  A
C1108      C1109   1.397       .  A
C1108      H1117   1.084       .  S
C1109      C1110   1.404       .  A
C1109      H1118   1.083       .  S
C1110      C1111   1.405       .  A
C1111      C1112   1.398       .  A
C1111      H1119   1.083       .  S
C1112      H1120   1.083       .  S
C1121      C1122   1.408       .  A
C1121      C1126   1.407       .  A
C1122      C1123   1.400       .  A
C1122      H1135   1.083       .  S
C1123      C1124   1.400       .  A
C1123      H1136   1.083       .  S
C1124      C1125   1.399       .  A
C1124      C1127   1.440       .  S
C1125      C1126   1.397       .  A
C1125      H1137   1.084       .  S
C1126      H1138   1.083       .  S
C1127      C1128   1.207       .  T
C1128      C1129   1.441       .  S
C1129      C1130   1.400       .  A
C1129      C1134   1.401       .  A
C1130      C1131   1.398       .  A
C1130      H1139   1.084       .  S
C1131      C1132   1.405       .  A
C1131      H1140   1.083       .  S
C1132      C1133   1.405       .  A
C1133      C1134   1.400       .  A
C1133      H1141   1.083       .  S
C1134      H1142   1.083       .  S
C1143      C1144   1.409       .  A
C1143      C1148   1.407       .  A
C1144      C1145   1.401       .  A
C1144      H1157   1.083       .  S
C1145      C1146   1.400       .  A
C1145      H1158   1.083       .  S
C1146      C1147   1.400       .  A
C1146      C1149   1.442       .  S
C1147      C1148   1.398       .  A
C1147      H1159   1.084       .  S
C1148      H1160   1.083       .  S
C1149      C1150   1.208       .  T
C1150      C1151   1.442       .  S
C1151      C1152   1.400       .  A
C1151      C1156   1.402       .  A
C1152      C1153   1.397       .  A
C1152      H1161   1.083       .  S
C1153      C1154   1.404       .  A
C1153      H1162   1.083       .  S
C1154      C1155   1.405       .  A
C1155      C1156   1.401       .  A
C1155      H1163   1.083       .  S
C1156      H1164   1.083       .  S
C1165      C1166   1.408       .  A
C1165      C1170   1.409       .  A
C1166      C1167   1.398       .  A
C1166      H1179   1.083       .  S
C1167      C1168   1.399       .  A
C1167      H1180   1.084       .  S
C1168      C1169   1.401       .  A
C1168      C1171   1.442       .  S
C1169      C1170   1.402       .  A
C1169      H1181   1.083       .  S
C1170      H1182   1.083       .  S
C1171      C1172   1.207       .  T
C1172      C1173   1.442       .  S
C1173      C1174   1.402       .  A
C1173      C1178   1.400       .  A
C1174      C1175   1.401       .  A
C1174      H1183   1.083       .  S
C1175      C1176   1.406       .  A
C1175      H1184   1.083       .  S
C1176      C1177   1.405       .  A
C1177      C1178   1.397       .  A
C1177      H1185   1.083       .  S
C1178      H1186   1.083       .  S
C1187      C1188   1.405       .  A
C1187      C1192   1.405       .  A
C1188      C1189   1.399       .  A
C1188      H1201   1.083       .  S
C1189      C1190   1.400       .  A
C1189      H1202   1.083       .  S
C1190      C1191   1.400       .  A
C1190      C1193   1.438   1_556  S
C1191      C1192   1.397       .  A
C1191      H1203   1.084   1_556  S
C1192      H1204   1.083       .  S
C1193      C1194   1.205       .  T
C1194      C1195   1.438       .  S
C1195      C1196   1.399       .  A
C1195      C1200   1.399       .  A
C1196      C1197   1.398       .  A
C1196      H1205   1.083       .  S
C1197      C1198   1.407       .  A
C1197      H1206   1.083       .  S
C1198      C1199   1.408       .  A
C1199      C1200   1.398       .  A
C1199      H1207   1.083       .  S
C1200      H1208   1.084       .  S
C1209      C1210   1.404       .  A
C1209      C1214   1.404       .  A
C1210      C1211   1.395       .  A
C1210      H1223   1.083       .  S
C1211      C1212   1.399       .  A
C1211      H1224   1.083   1_556  S
C1212      C1213   1.400       .  A
C1212      C1215   1.436   1_556  S
C1213      C1214   1.398       .  A
C1213      H1225   1.083       .  S
C1214      H1226   1.083       .  S
C1215      C1216   1.204       .  T
C1216      C1217   1.436       .  S
C1217      C1218   1.398       .  A
C1217      C1222   1.399       .  A
C1218      C1219   1.397       .  A
C1218      H1227   1.084       .  S
C1219      C1220   1.408       .  A
C1219      H1228   1.083       .  S
C1220      C1221   1.408       .  A
C1221      C1222   1.398       .  A
C1221      H1229   1.083       .  S
C1222      H1230   1.084       .  S
C1231      C1232   1.408       .  A
C1231      C1236   1.407       .  A
C1232      C1233   1.400       .  A
C1232      H1245   1.083       .  S
C1233      C1234   1.400       .  A
C1233      H1246   1.083       .  S
C1234      C1235   1.399       .  A
C1234      C1237   1.440       .  S
C1235      C1236   1.397       .  A
C1235      H1247   1.084       .  S
C1236      H1248   1.083       .  S
C1237      C1238   1.206       .  T
C1238      C1239   1.439       .  S
C1239      C1240   1.399       .  A
C1239      C1244   1.401       .  A
C1240      C1241   1.396       .  A
C1240      H1249   1.084       .  S
C1241      C1242   1.404       .  A
C1241      H1250   1.083       .  S
C1242      C1243   1.407       .  A
C1243      C1244   1.400       .  A
C1243      H1251   1.083       .  S
C1244      H1252   1.083       .  S
C1253      C1254   1.404       .  A
C1253      C1258   1.405       .  A
C1254      C1255   1.397       .  A
C1254      H1267   1.083       .  S
C1255      C1256   1.400       .  A
C1255      H1268   1.084       .  S
C1256      C1257   1.401       .  A
C1256      C1259   1.438       .  S
C1257      C1258   1.399       .  A
C1257      H1269   1.083       .  S
C1258      H1270   1.083       .  S
C1259      C1260   1.205       .  T
C1260      C1261   1.438       .  S
C1261      C1262   1.400       .  A
C1261      C1266   1.398       .  A
C1262      C1263   1.399       .  A
C1262      H1271   1.083       .  S
C1263      C1264   1.408       .  A
C1263      H1272   1.083       .  S
C1264      C1265   1.407       .  A
C1265      C1266   1.396       .  A
C1265      H1273   1.083       .  S
C1266      H1274   1.084       .  S
C1275      C1276   1.409       .  A
C1275      C1280   1.408       .  A
C1276      C1277   1.402       .  A
C1276      H1289   1.083       .  S
C1277      C1278   1.401       .  A
C1277      H1290   1.083       .  S
C1278      C1279   1.399       .  A
C1278      C1281   1.445       .  S
C1279      C1280   1.398       .  A
C1279      H1291   1.084       .  S
C1280      H1292   1.083       .  S
C1281      C1282   1.209       .  T
C1282      C1283   1.445       .  S
C1283      C1284   1.401       .  A
C1283      C1288   1.402       .  A
C1284      C1285   1.399       .  A
C1284      H1293   1.083       .  S
C1285      C1286   1.404       .  A
C1285      H1294   1.083       .  S
C1286      C1287   1.407       .  A
C1287      C1288   1.402       .  A
C1287      H1295   1.083       .  S
C1288      H1296   1.083       .  S
C1297      C1298   1.404       .  A
C1297      C1302   1.403       .  A
C1298      C1299   1.400       .  A
C1298      H1311   1.083       .  S
C1299      C1300   1.401       .  A
C1299      H1312   1.083       .  S
C1300      C1301   1.400       .  A
C1300      C1303   1.439   1_556  S
C1301      C1302   1.397       .  A
C1301      H1313   1.084   1_556  S
C1302      H1314   1.083       .  S
C1303      C1304   1.206       .  T
C1304      C1305   1.439       .  S
C1305      C1306   1.399       .  A
C1305      C1310   1.399       .  A
C1306      C1307   1.399       .  A
C1306      H1315   1.083       .  S
C1307      C1308   1.407       .  A
C1307      H1316   1.083       .  S
C1308      C1309   1.407       .  A
C1309      C1310   1.398       .  A
C1309      H1317   1.083       .  S
C1310      H1318   1.084       .  S
C1319      C1320   1.404       .  A
C1319      C1324   1.404       .  A
C1320      C1321   1.398       .  A
C1320      H1333   1.083       .  S
C1321      C1322   1.401       .  A
C1321      H1334   1.083       .  S
C1322      C1323   1.400   1_556  A
C1322      C1325   1.439   1_556  S
C1323      C1324   1.398   1_554  A
C1323      H1335   1.083       .  S
C1324      H1336   1.083       .  S
C1325      C1326   1.206       .  T
C1326      C1327   1.439       .  S
C1327      C1328   1.399       .  A
C1327      C1332   1.400       .  A
C1328      C1329   1.397       .  A
C1328      H1337   1.084       .  S
C1329      C1330   1.407       .  A
C1329      H1338   1.083       .  S
C1330      C1331   1.408       .  A
C1331      C1332   1.399       .  A
C1331      H1339   1.083       .  S
C1332      H1340   1.084       .  S
C1341      C1342   1.408       .  A
C1341      C1346   1.409       .  A
C1342      C1343   1.399       .  A
C1342      H1355   1.083       .  S
C1343      C1344   1.400       .  A
C1343      H1356   1.083       .  S
C1344      C1345   1.399       .  A
C1344      C1347   1.441       .  S
C1345      C1346   1.399       .  A
C1345      H1357   1.084       .  S
C1346      H1358   1.083       .  S
C1347      C1348   1.207       .  T
C1348      C1349   1.441       .  S
C1349      C1350   1.402       .  A
C1349      C1354   1.400       .  A
C1350      C1351   1.400       .  A
C1350      H1359   1.083       .  S
C1351      C1352   1.404       .  A
C1351      H1360   1.083       .  S
C1352      C1353   1.404       .  A
C1353      C1354   1.398       .  A
C1353      H1361   1.083       .  S
C1354      H1362   1.083       .  S
C1363      C1364   1.408       .  A
C1363      C1368   1.408       .  A
C1364      C1365   1.398       .  A
C1364      H1377   1.083       .  S
C1365      C1366   1.399       .  A
C1365      H1378   1.084       .  S
C1366      C1367   1.400       .  A
C1366      C1369   1.441       .  S
C1367      C1368   1.400       .  A
C1367      H1379   1.083       .  S
C1368      H1380   1.083       .  S
C1369      C1370   1.207       .  T
C1370      C1371   1.441       .  S
C1371      C1372   1.400       .  A
C1371      C1376   1.401       .  A
C1372      C1373   1.398       .  A
C1372      H1381   1.083       .  S
C1373      C1374   1.404       .  A
C1373      H1382   1.083       .  S
C1374      C1375   1.406       .  A
C1375      C1376   1.400       .  A
C1375      H1383   1.083       .  S
C1376      H1384   1.083       .  S
C1385      C1386   1.408       .  A
C1385      C1390   1.408       .  A
C1386      C1387   1.397       .  A
C1386      H1399   1.083       .  S
C1387      C1388   1.399       .  A
C1387      H1400   1.084       .  S
C1388      C1389   1.399       .  A
C1388      C1391   1.437       .  S
C1389      C1390   1.398       .  A
C1389      H1401   1.084       .  S
C1390      H1402   1.083       .  S
C1391      C1392   1.204       .  T
C1392      C1393   1.437       .  S
C1393      C1394   1.400       .  A
C1393      C1398   1.401       .  A
C1394      C1395   1.396       .  A
C1394      H1403   1.084       .  S
C1395      C1396   1.402       .  A
C1395      H1404   1.083       .  S
C1396      C1397   1.404       .  A
C1397      C1398   1.399       .  A
C1397      H1405   1.083       .  S
C1398      H1406   1.083       .  S
C1407      C1408   1.408       .  A
C1407      C1412   1.407       .  A
C1408      C1409   1.400       .  A
C1408      H1421   1.083       .  S
C1409      C1410   1.400       .  A
C1409      H1422   1.083       .  S
C1410      C1411   1.399       .  A
C1410      C1413   1.439       .  S
C1411      C1412   1.397       .  A
C1411      H1423   1.084       .  S
C1412      H1424   1.083       .  S
C1413      C1414   1.206       .  T
C1414      C1415   1.439       .  S
C1415      C1416   1.400   1_554  A
C1415      C1420   1.401       .  A
C1416      C1417   1.397       .  A
C1416      H1425   1.084       .  S
C1417      C1418   1.403       .  A
C1417      H1426   1.083       .  S
C1418      C1419   1.406       .  A
C1419      C1420   1.400   1_556  A
C1419      H1427   1.083       .  S
C1420      H1428   1.083       .  S
C1429      C1430   1.407       .  A
C1429      C1434   1.408       .  A
C1430      C1431   1.396       .  A
C1430      H1443   1.083       .  S
C1431      C1432   1.399       .  A
C1431      H1444   1.084       .  S
C1432      C1433   1.400       .  A
C1432      C1435   1.439       .  S
C1433      C1434   1.400       .  A
C1433      H1445   1.083       .  S
C1434      H1446   1.083       .  S
C1435      C1436   1.205       .  T
C1436      C1437   1.439   1_554  S
C1437      C1438   1.401       .  A
C1437      C1442   1.401       .  A
C1438      C1439   1.399       .  A
C1438      H1447   1.083   1_556  S
C1439      C1440   1.404       .  A
C1439      H1448   1.083       .  S
C1440      C1441   1.403       .  A
C1441      C1442   1.397       .  A
C1441      H1449   1.083       .  S
C1442      H1450   1.084       .  S
C1451      C1452   1.408       .  A
C1451      C1456   1.409       .  A
C1452      C1453   1.397       .  A
C1452      H1465   1.083       .  S
C1453      C1454   1.399       .  A
C1453      H1466   1.084       .  S
C1454      C1455   1.401       .  A
C1454      C1457   1.442       .  S
C1455      C1456   1.401       .  A
C1455      H1467   1.083       .  S
C1456      H1468   1.083       .  S
C1457      C1458   1.207       .  T
C1458      C1459   1.442       .  S
C1459      C1460   1.401       .  A
C1459      C1464   1.401       .  A
C1460      C1461   1.400       .  A
C1460      H1469   1.083       .  S
C1461      C1462   1.404       .  A
C1461      H1470   1.083       .  S
C1462      C1463   1.404       .  A
C1463      C1464   1.399       .  A
C1463      H1471   1.083       .  S
C1464      H1472   1.083       .  S
C1473      C1474   1.407       .  A
C1473      C1478   1.408       .  A
C1474      C1475   1.396       .  A
C1474      H1487   1.083       .  S
C1475      C1476   1.398       .  A
C1475      H1488   1.084       .  S
C1476      C1477   1.400       .  A
C1476      C1479   1.438       .  S
C1477      C1478   1.400       .  A
C1477      H1489   1.083       .  S
C1478      H1490   1.083       .  S
C1479      C1480   1.205       .  T
C1480      C1481   1.438       .  S
C1481      C1482   1.401       .  A
C1481      C1486   1.400       .  A
C1482      C1483   1.399       .  A
C1482      H1491   1.083       .  S
C1483      C1484   1.405       .  A
C1483      H1492   1.083       .  S
C1484      C1485   1.403       .  A
C1485      C1486   1.396       .  A
C1485      H1493   1.083       .  S
C1486      H1494   1.084       .  S
C1495      C1496   1.407       .  A
C1495      C1500   1.409       .  A
C1496      C1497   1.396       .  A
C1496      H1509   1.083       .  S
C1497      C1498   1.398       .  A
C1497      H1510   1.084       .  S
C1498      C1499   1.401       .  A
C1498      C1501   1.441       .  S
C1499      C1500   1.402       .  A
C1499      H1511   1.083       .  S
C1500      H1512   1.083       .  S
C1501      C1502   1.207       .  T
C1502      C1503   1.441       .  S
C1503      C1504   1.401       .  A
C1503      C1508   1.400       .  A
C1504      C1505   1.400       .  A
C1504      H1513   1.083       .  S
C1505      C1506   1.405       .  A
C1505      H1514   1.083       .  S
C1506      C1507   1.406       .  A
C1507      C1508   1.398       .  A
C1507      H1515   1.083       .  S
C1508      H1516   1.084       .  S
C1517      C1518   1.408       .  A
C1517      C1522   1.408       .  A
C1518      C1519   1.398       .  A
C1518      H1531   1.083       .  S
C1519      C1520   1.399       .  A
C1519      H1532   1.084       .  S
C1520      C1521   1.399       .  A
C1520      C1523   1.439       .  S
C1521      C1522   1.399       .  A
C1521      H1533   1.084       .  S
C1522      H1534   1.083       .  S
C1523      C1524   1.205       .  T
C1524      C1525   1.439   1_554  S
C1525      C1526   1.401   1_556  A
C1525      C1530   1.400       .  A
C1526      C1527   1.399   1_554  A
C1526      H1535   1.083       .  S
C1527      C1528   1.404       .  A
C1527      H1536   1.083       .  S
C1528      C1529   1.404       .  A
C1529      C1530   1.397       .  A
C1529      H1537   1.083       .  S
C1530      H1538   1.083       .  S
C1539      C1540   1.405       .  A
C1539      C1544   1.404       .  A
C1540      C1541   1.398   1_556  A
C1540      H1553   1.083       .  S
C1541      C1542   1.400       .  A
C1541      H1554   1.083       .  S
C1542      C1543   1.401   1_554  A
C1542      C1545   1.439       .  S
C1543      C1544   1.398       .  A
C1543      H1555   1.083       .  S
C1544      H1556   1.083       .  S
C1545      C1546   1.206       .  T
C1546      C1547   1.439       .  S
C1547      C1548   1.399       .  A
C1547      C1552   1.400       .  A
C1548      C1549   1.398       .  A
C1548      H1557   1.083       .  S
C1549      C1550   1.408       .  A
C1549      H1558   1.083       .  S
C1550      C1551   1.408       .  A
C1551      C1552   1.399       .  A
C1551      H1559   1.083       .  S
C1552      H1560   1.084       .  S
C1561      C1562   1.409       .  A
C1561      C1566   1.408       .  A
C1562      C1563   1.398       .  A
C1562      H1575   1.083       .  S
C1563      C1564   1.399       .  A
C1563      H1576   1.084       .  S
C1564      C1565   1.400       .  A
C1564      C1567   1.439       .  S
C1565      C1566   1.399       .  A
C1565      H1577   1.084       .  S
C1566      H1578   1.083       .  S
C1567      C1568   1.206       .  T
C1568      C1569   1.439       .  S
C1569      C1570   1.400       .  A
C1569      C1574   1.401       .  A
C1570      C1571   1.397       .  A
C1570      H1579   1.084       .  S
C1571      C1572   1.405       .  A
C1571      H1580   1.083       .  S
C1572      C1573   1.404       .  A
C1573      C1574   1.399       .  A
C1573      H1581   1.083       .  S
C1574      H1582   1.083       .  S
C1583      C1584   1.408       .  A
C1583      C1588   1.408       .  A
C1584      C1585   1.397       .  A
C1584      H1597   1.083       .  S
C1585      C1586   1.398       .  A
C1585      H1598   1.084       .  S
C1586      C1587   1.399       .  A
C1586      C1589   1.437       .  S
C1587      C1588   1.399       .  A
C1587      H1599   1.084       .  S
C1588      H1600   1.083       .  S
C1589      C1590   1.204       .  T
C1590      C1591   1.436       .  S
C1591      C1592   1.400       .  A
C1591      C1596   1.400       .  A
C1592      C1593   1.397       .  A
C1592      H1601   1.083       .  S
C1593      C1594   1.404       .  A
C1593      H1602   1.083       .  S
C1594      C1595   1.404       .  A
C1595      C1596   1.396       .  A
C1595      H1603   1.083       .  S
C1596      H1604   1.084       .  S
C1605      C1606   1.408       .  A
C1605      C1610   1.408       .  A
C1606      C1607   1.400       .  A
C1606      H1619   1.083       .  S
C1607      C1608   1.400       .  A
C1607      H1620   1.083       .  S
C1608      C1609   1.398       .  A
C1608      C1611   1.438       .  S
C1609      C1610   1.395       .  A
C1609      H1621   1.084       .  S
C1610      H1622   1.083       .  S
C1611      C1612   1.205       .  T
C1612      C1613   1.438       .  S
C1613      C1614   1.400       .  A
C1613      C1618   1.401       .  A
C1614      C1615   1.396       .  A
C1614      H1623   1.084       .  S
C1615      C1616   1.404       .  A
C1615      H1624   1.083       .  S
C1616      C1617   1.405       .  A
C1617      C1618   1.399       .  A
C1617      H1625   1.083       .  S
C1618      H1626   1.083       .  S
C1627      C1628   1.408       .  A
C1627      C1632   1.407       .  A
C1628      C1629   1.397       .  A
C1628      H1641   1.083       .  S
C1629      C1630   1.398       .  A
C1629      H1642   1.084       .  S
C1630      C1631   1.399       .  A
C1630      C1633   1.436       .  S
C1631      C1632   1.397       .  A
C1631      H1643   1.084       .  S
C1632      H1644   1.083       .  S
C1633      C1634   1.204       .  T
C1634      C1635   1.436       .  S
C1635      C1636   1.400       .  A
C1635      C1640   1.400       .  A
C1636      C1637   1.397       .  A
C1636      H1645   1.083       .  S
C1637      C1638   1.405       .  A
C1637      H1646   1.083       .  S
C1638      C1639   1.404       .  A
C1639      C1640   1.396       .  A
C1639      H1647   1.083       .  S
C1640      H1648   1.084       .  S
