geometry optimzed in LAMMPS
_audit_creation_date              2020-11-30 
_audit_creation_method            'lammps2cif' 
_symmetry_space_group_name_H-M    'P1' 
_symmetry_Int_Tables_number       1 
_symmetry_cell_setting            triclinic 
loop_ 
_symmetry_equiv_pos_as_xyz 
  x,y,z 
_cell_length_a                    37.68581374 
_cell_length_b                    37.660293065399614 
_cell_length_c                    45.6734808663104 
_cell_angle_alpha                 89.90912069217501 
_cell_angle_beta                  90.00923824350446 
_cell_angle_gamma                 120.05714608412195 
loop_ 
_atom_site_label 
_atom_site_type_symbol 
_atom_site_fract_x 
_atom_site_fract_y 
_atom_site_fract_z 
_atom_site_charge 
Fe1        Fe  0.68277834  0.84635331  0.12384392     1.65800
Fe2        Fe  0.59302592  0.80201440  0.16217037     1.73200
Fe3        Fe  0.59105098  0.80237647  0.08767834     1.54400
O4          O  0.63099663  0.85681326  0.06698281    -0.80200
O5          O  0.55639722  0.74181721  0.15040190    -0.78500
O6          O  0.68671143  0.89003536  0.09465252    -0.82700
O7          O  0.68489770  0.81101903  0.08977038    -0.77600
O8          O  0.55670997  0.82840914  0.10024711    -0.79400
O9          O  0.63250116  0.78551187  0.18168659    -0.82100
C10         C  0.65909269  0.78399953  0.07243434     0.98700
C11         C  0.66566838  0.88796428  0.07236002     1.06100
O12         O  0.62236143  0.81699435  0.12453843    -1.11100
O13         O  0.62632097  0.86069862  0.17788553    -0.73500
O14         O  0.68813692  0.88559041  0.15789389    -0.77000
O15         O  0.62189311  0.77491773  0.07136861    -0.77700
C16         C  0.66369462  0.88828245  0.17581976     0.97600
O17         O  0.68649123  0.80593278  0.15261251    -0.75700
O18         O  0.54897772  0.81581587  0.14808407    -0.80800
C19         C  0.53819841  0.72570776  0.12661755     1.00200
C20         C  0.53950248  0.82690155  0.12443493     1.06100
O21         O  0.54654648  0.74533325  0.10262868    -0.76500
C22         C  0.66597466  0.78697313  0.17511766     1.04400
Fe23       Fe  0.14819846  0.83600089  0.12721150     1.65800
Fe24       Fe  0.19529046  0.79053562  0.16262344     1.73200
Fe25       Fe  0.18959939  0.78810391  0.08797598     1.54400
O26         O  0.13184950  0.76884412  0.07129975    -0.80200
O27         O  0.25442911  0.81303131  0.14776259    -0.78500
O28         O  0.10335332  0.79697210  0.09838997    -0.82700
O29         O  0.18193867  0.87497230  0.09316456    -0.77600
O30         O  0.16885596  0.72876565  0.10114583    -0.79400
O31         O  0.21476330  0.84654925  0.18165520    -0.82100
C32         C  0.20526356  0.87460177  0.07322037     0.98700
C33         C  0.10212320  0.77441741  0.07733412     1.06100
O34         O  0.17758824  0.80486278  0.12593923    -1.11100
O35         O  0.13848211  0.76723121  0.18184575    -0.73500
O36         O  0.11084187  0.80145562  0.16155495    -0.77000
O37         O  0.21186591  0.84506383  0.06987866    -0.77700
C38         C  0.11040632  0.77641996  0.18046682     0.97600
O39         O  0.18912754  0.87892962  0.15621412    -0.75700
O40         O  0.17828374  0.73206584  0.14918148    -0.80800
C41         C  0.27027074  0.81564137  0.12277743     1.00200
C42         C  0.16834586  0.71219158  0.12538664     1.06100
O43         O  0.24925914  0.80576598  0.09940334    -0.76500
C44         C  0.21082940  0.87750422  0.17691496     1.04400
Fe45       Fe  0.15453568  0.31026752  0.12485509     1.65800
Fe46       Fe  0.20299092  0.40036293  0.08663595     1.73200
Fe47       Fe  0.20194341  0.40157312  0.16138126     1.54400
O48         O  0.14624339  0.36383998  0.18109904    -0.80200
O49         O  0.26299374  0.43715786  0.09913024    -0.78500
O50         O  0.11150299  0.30867517  0.15337259    -0.82700
O51         O  0.18795826  0.30551482  0.15932351    -0.77600
O52         O  0.17890209  0.43837504  0.14805616    -0.79400
O53         O  0.21934641  0.36074227  0.06838465    -0.82100
C54         C  0.21474977  0.32967315  0.17751997     0.98700
C55         C  0.11391720  0.33038355  0.17527307     1.06100
O56         O  0.18667449  0.37073057  0.12429028    -1.11100
O57         O  0.14482239  0.36795674  0.06952767    -0.73500
O58         O  0.11624928  0.30684511  0.09094031    -0.77000
O59         O  0.22599878  0.36755918  0.17870625    -0.77700
C60         C  0.11535589  0.33155441  0.07236756     0.97600
O61         O  0.19373233  0.30468927  0.09615953    -0.75700
O62         O  0.18894175  0.44392374  0.09981213    -0.80800
C63         C  0.27938822  0.45448476  0.12311498     1.00200
C64         C  0.17887382  0.45408453  0.12346862     1.06100
O65         O  0.26008252  0.44459772  0.14724910    -0.76500
C66         C  0.21491158  0.32590847  0.07452873     1.04400
Fe67       Fe  0.83393171  0.68551470  0.37623984     1.65800
Fe68       Fe  0.79343836  0.59485706  0.33873786     1.73200
Fe69       Fe  0.78502874  0.59384833  0.41316611     1.54400
O70         O  0.84141551  0.62807875  0.43287777    -0.80200
O71         O  0.73434415  0.55141849  0.34991212    -0.78500
O72         O  0.87013105  0.68953686  0.41178085    -0.82700
O73         O  0.79190045  0.68877339  0.40382623    -0.77600
O74         O  0.80214149  0.55153756  0.40184052    -0.79400
O75         O  0.77060120  0.62843049  0.31856856    -0.82100
C76         C  0.76991173  0.66656777  0.42490426     0.98700
C77         C  0.87003295  0.66516858  0.43112571     1.06100
O78         O  0.80400539  0.62481601  0.37604367    -1.11100
O79         O  0.85074200  0.63353858  0.32232614    -0.73500
O80         O  0.88013495  0.69026729  0.34906797    -0.77000
O81         O  0.76558005  0.63160119  0.43026199    -0.77700
C82         C  0.88109443  0.66832406  0.32834561     0.97600
O83         O  0.80203125  0.68951773  0.34034417    -0.75700
O84         O  0.81582215  0.55825201  0.35412332    -0.80800
C85         C  0.71234539  0.54012572  0.37281228     1.00200
C86         C  0.81453946  0.54228758  0.37885506     1.06100
O87         O  0.72627025  0.55586131  0.39773486    -0.76500
C88         C  0.77903674  0.66552156  0.32032211     1.04400
Fe89       Fe  0.84141615  0.16080126  0.37281523     1.65800
Fe90       Fe  0.79721416  0.20615370  0.41106967     1.73200
Fe91       Fe  0.79737399  0.20816168  0.33676111     1.54400
O92         O  0.85041217  0.22053958  0.31566588    -0.80200
O93         O  0.73686215  0.18230788  0.39894019    -0.78500
O94         O  0.88578798  0.20189985  0.34434790    -0.82700
O95         O  0.80656610  0.12414961  0.33809795    -0.77600
O96         O  0.82576119  0.26886818  0.34921590    -0.79400
O97         O  0.78060102  0.15033953  0.43019227    -0.82100
C98         C  0.77810108  0.12149071  0.32156963     0.98700
C99         C  0.88252322  0.21910859  0.32138916     1.06100
O100        O  0.81211918  0.19170435  0.37361151    -1.11100
O101        O  0.85549927  0.23070012  0.42759006    -0.73500
O102        O  0.87964040  0.19308129  0.40771593    -0.77000
O103        O  0.76790982  0.14892176  0.32109578    -0.77700
C104        C  0.88200624  0.21941088  0.42625226     0.97600
O105        O  0.80044249  0.11625400  0.40117085    -0.75700
O106        O  0.81249317  0.26446546  0.39698392    -0.80800
C107        C  0.72128398  0.18561177  0.37524675     1.00200
C108        C  0.82538491  0.28515122  0.37344326     1.06100
O109        O  0.74167941  0.19831728  0.35174172    -0.76500
C110        C  0.78205795  0.11830356  0.42384198     1.04400
Fe111      Fe  0.30782217  0.14722738  0.37414023     1.65800
Fe112      Fe  0.39743261  0.19264840  0.41203110     1.73200
Fe113      Fe  0.39899453  0.19393188  0.33774930     1.54400
O114        O  0.36776331  0.13526856  0.32172740    -0.80200
O115        O  0.44316904  0.24950793  0.39743619    -0.78500
O116        O  0.30474725  0.11025189  0.33955358    -0.82700
O117        O  0.30457958  0.18827265  0.34589632    -0.77600
O118        O  0.44309828  0.18108989  0.35326886    -0.79400
O119        O  0.36588619  0.22021510  0.42660346    -0.82100
C120        C  0.32543851  0.20707057  0.32344979     0.98700
C121        C  0.33022906  0.10787053  0.32261358     1.06100
O122        O  0.36801237  0.17792850  0.37459343    -1.11100
O123        O  0.35638647  0.13819299  0.43250421    -0.73500
O124        O  0.30442771  0.10274021  0.40221499    -0.77000
O125        O  0.35919529  0.20894160  0.31721017    -0.77700
C126        C  0.32360005  0.10560324  0.42571605     0.97600
O127        O  0.30311149  0.18009460  0.40890371    -0.75700
O128        O  0.43152452  0.16622235  0.40075660    -0.80800
C129        C  0.45181220  0.27007516  0.37382780     1.00200
C130        C  0.45030633  0.16856628  0.37719823     1.06100
O131        O  0.43351891  0.25440036  0.34997651    -0.76500
C132        C  0.32798211  0.20848030  0.42584545     1.04400
C133        C  0.62509971  0.18819914  0.35636763     0.14100
C134        C  0.59608841  0.15752206  0.37477331     0.01100
C135        C  0.60798549  0.13513422  0.39286609     0.16100
C136        C  0.64872322  0.14393104  0.39296684     0.25500
C137        C  0.67797637  0.17512487  0.37482315    -0.40900
C138        C  0.66563886  0.19687737  0.35630622     0.32500
C139        C  0.55467637  0.15218062  0.37686095     0.01100
F140        F  0.58017514  0.10500565  0.41053520    -0.13200
F141        F  0.69322292  0.22795192  0.33911693    -0.13700
C142        C  0.52968419  0.14205945  0.35192557     0.16100
C143        C  0.49426572  0.14514578  0.35242627     0.25500
C144        C  0.48339839  0.15842882  0.37792245    -0.40800
C145        C  0.50706165  0.16579022  0.40346759     0.32400
C146        C  0.54246615  0.16276032  0.40287192     0.14100
F147        F  0.54057348  0.13083693  0.32675795    -0.13200
F148        F  0.49787341  0.17908326  0.42841652    -0.13700
F149        F  0.47124369  0.13624641  0.32775721    -0.16000
F150        F  0.56657309  0.17330477  0.42707594    -0.14500
F151        F  0.61454377  0.21115410  0.33944211    -0.14500
F152        F  0.65946924  0.12178110  0.41058648    -0.15900
C153        C  0.60156588  0.46346322  0.39177713     0.14100
C154        C  0.59143107  0.43418829  0.36959102     0.01100
C155        C  0.61957557  0.44171052  0.34704078     0.16100
C156        C  0.65819287  0.47709525  0.34738804     0.25500
C157        C  0.66943782  0.50573133  0.37042998    -0.40900
C158        C  0.64020922  0.49898846  0.39222436     0.32500
C159        C  0.55376166  0.39371223  0.37177261     0.01100
F160        F  0.61063371  0.41343191  0.32566246    -0.13200
F161        F  0.64923294  0.52627570  0.41432017    -0.13700
C162        C  0.52264158  0.38080994  0.35068789     0.16100
C163        C  0.48870920  0.34103503  0.35178201     0.25500
C164        C  0.48558049  0.31342454  0.37394068    -0.40800
C165        C  0.51667211  0.32697696  0.39531662     0.32400
C166        C  0.55036426  0.36666678  0.39416596     0.14100
F167        F  0.52536752  0.40663967  0.32890362    -0.13200
F168        F  0.51569096  0.30124888  0.41657397    -0.13700
F169        F  0.45909419  0.32956978  0.33108147    -0.16000
F170        F  0.58082477  0.37814334  0.41418619    -0.14500
F171        F  0.57434017  0.45695523  0.41348378    -0.14500
F172        F  0.68540981  0.48178442  0.32612651    -0.15900
C173        C  0.86680968  0.48051363  0.36339356     0.14100
C174        C  0.84331437  0.44537993  0.38062213     0.01100
C175        C  0.81247446  0.44383304  0.39883361     0.16100
C176        C  0.80436343  0.47617082  0.39913235     0.25500
C177        C  0.82647354  0.51046412  0.38082907    -0.40900
C178        C  0.85829847  0.51270952  0.36335963     0.32500
C179        C  0.84778819  0.40858531  0.37782225     0.01100
F180        F  0.78847802  0.40985454  0.41509948    -0.13200
F181        F  0.88111205  0.54606070  0.34623987    -0.13700
C182        C  0.85315816  0.38999776  0.40281452     0.16100
C183        C  0.84848711  0.35081090  0.40110288     0.25500
C184        C  0.83843986  0.32947643  0.37426552    -0.40800
C185        C  0.83714835  0.34993945  0.34875422     0.32400
C186        C  0.84147402  0.38898432  0.35058700     0.14100
F187        F  0.86127428  0.40916864  0.42916066    -0.13200
F188        F  0.82880223  0.33117787  0.32224986    -0.13700
F189        F  0.85259947  0.33331757  0.42593723    -0.16000
F190        F  0.83630178  0.40623304  0.32601650    -0.14500
F191        F  0.89760702  0.48335690  0.34630805    -0.14500
F192        F  0.77310585  0.47270202  0.41601336    -0.15900
C193        C  0.01615464  0.26170190  0.03164350     0.14100
C194        C  0.01271940  0.28956622  0.01316094     0.01100
C195        C  0.04146157  0.33148354  0.01527302     0.16100
C196        C  0.07420145  0.34535168  0.03497828     0.25500
C197        C  0.07891904  0.31729188  0.05289694    -0.40900
C198        C  0.04890204  0.27529150  0.05128131     0.32500
C199        C  0.97866862  0.26577111  0.49082248     0.01100
F200        F  0.02360380  0.34953353  0.50742376    -0.13200
F201        F  0.05164260  0.24697817  0.06806382    -0.13700
C202        C  0.94287598  0.26757277  0.49576482     0.16100
C203        C  0.91184316  0.25310891  0.47465416     0.25500
C204        C  0.91604715  0.23660600  0.44796191    -0.40800
C205        C  0.95216700  0.23500656  0.44310537     0.32400
C206        C  0.98311867  0.24946405  0.46434239     0.14100
F207        F  0.93107916  0.26918406  0.02633566    -0.13200
F208        F  0.95783181  0.21982846  0.41770024    -0.13700
F209        F  0.87709937  0.25406908  0.48090011    -0.16000
F210        F  0.01781462  0.24806972  0.45890297    -0.14500
F211        F  0.98824655  0.22103980  0.03008430    -0.14500
F212        F  0.10127304  0.38626501  0.03629441    -0.15900
C213        C  0.98780339  0.26178187  0.28657724     0.14100
C214        C  0.98031539  0.27032297  0.25807240     0.01100
C215        C  0.94124170  0.26302552  0.25054891     0.16100
C216        C  0.90970523  0.24695451  0.27119920     0.25500
C217        C  0.91669371  0.23762903  0.29990667    -0.40900
C218        C  0.95627950  0.24545324  0.30734979     0.32500
C219        C  0.01322975  0.28635305  0.23601722     0.01100
F220        F  0.93368537  0.27159917  0.22312375    -0.13200
F221        F  0.96467339  0.23752941  0.33470034    -0.13700
C222        C  0.01199522  0.26131078  0.21291786     0.16100
C223        C  0.04417272  0.27575952  0.19275314     0.25500
C224        C  0.07817789  0.31582637  0.19529579    -0.40800
C225        C  0.07837361  0.34123541  0.21811954     0.32400
C226        C  0.04623797  0.32647355  0.23829653     0.14100
F227        F  0.98006274  0.22237453  0.21040314    -0.13200
F228        F  0.10971089  0.38037235  0.22119180    -0.13700
F229        F  0.04233615  0.24997508  0.17129594    -0.16000
F230        F  0.04726703  0.35138913  0.26014227    -0.14500
F231        F  0.02558103  0.26863575  0.29409525    -0.14500
F232        F  0.87214963  0.23982124  0.26271127    -0.15900
C233        C  0.32127721  0.27752588  0.26557209     0.14100
C234        C  0.27890326  0.26199745  0.26300813     0.01100
C235        C  0.25192267  0.22931463  0.28105220     0.16100
C236        C  0.26702859  0.21202100  0.30113982     0.25500
C237        C  0.30952497  0.22693689  0.30338286    -0.40900
C238        C  0.33648638  0.26008643  0.28543991     0.32500
C239        C  0.26286532  0.27940195  0.24107098     0.01100
F240        F  0.21084733  0.21413963  0.27919443    -0.13200
F241        F  0.37766283  0.27584879  0.28717129    -0.13700
C242        C  0.23887528  0.25533570  0.21761589     0.16100
C243        C  0.22396388  0.27174634  0.19665862     0.25500
C244        C  0.23259553  0.31275316  0.19881298    -0.40800
C245        C  0.25681691  0.33673792  0.22254895     0.32400
C246        C  0.27178723  0.32018582  0.24334316     0.14100
F247        F  0.23024291  0.21590136  0.21483934    -0.13200
F248        F  0.26539454  0.37602717  0.22621423    -0.13700
F249        F  0.20104179  0.24724888  0.17431439    -0.16000
F250        F  0.29427793  0.34375970  0.26618948    -0.14500
F251        F  0.34791096  0.30904579  0.24828655    -0.14500
F252        F  0.23988523  0.17978344  0.31767468    -0.15900
C253        C  0.32487042  0.28188108  0.48106693     0.14100
C254        C  0.28337047  0.26111352  0.48890988     0.01100
C255        C  0.25613884  0.22400365  0.47524547     0.16100
C256        C  0.27029001  0.20742833  0.45404050     0.25500
C257        C  0.31217940  0.22771005  0.44635716    -0.40900
C258        C  0.33927587  0.26535653  0.46001507     0.32500
C259        C  0.26634376  0.27695697  0.01360019     0.01100
F260        F  0.21431737  0.21676550  0.97215452    -0.13200
F261        F  0.37975214  0.28634519  0.45304101    -0.13700
C262        C  0.28275485  0.31954708  0.01604174     0.16100
C263        C  0.26726913  0.33550909  0.03672012     0.25500
C264        C  0.23428611  0.30913427  0.05497274    -0.40800
C265        C  0.21839384  0.26648032  0.05286642     0.32400
C266        C  0.23453910  0.25062134  0.03256481     0.14100
F267        F  0.27647762  0.33048882  0.47622144    -0.13200
F268        F  0.18620457  0.23988191  0.06965891    -0.13700
F269        F  0.28450933  0.37688885  0.03866746    -0.16000
F270        F  0.21894716  0.20940488  0.03138664    -0.14500
F271        F  0.35150684  0.31795026  0.49411215    -0.14500
F272        F  0.24308490  0.17100959  0.44169985    -0.15900
C273        C  0.27833712  0.94791227  0.01621143     0.14100
C274        C  0.25878640  0.96985411  0.00822547     0.01100
C275        C  0.22257230  0.96179975  0.02262523     0.16100
C276        C  0.20578374  0.93180693  0.04452271     0.25500
C277        C  0.22487463  0.90914737  0.05221688    -0.40900
C278        C  0.26158780  0.91783516  0.03797930     0.32500
C279        C  0.27307011  0.00517491  0.48749986     0.01100
F280        F  0.20369350  0.98333892  0.01562642    -0.13200
F281        F  0.28150213  0.89736835  0.04522146    -0.13700
C282        C  0.25074050  0.00363417  0.46250144     0.16100
C283        C  0.26738324  0.03565823  0.44205238     0.25500
C284        C  0.30674809  0.07016829  0.44639621    -0.40800
C285        C  0.32910762  0.07113078  0.47153879     0.32400
C286        C  0.31237149  0.03893134  0.49177884     0.14100
F287        F  0.21276346  0.97095274  0.45787320    -0.13200
F288        F  0.36714281  0.10331919  0.47685756    -0.13700
F289        F  0.24448321  0.03297055  0.41830897    -0.16000
F290        F  0.33422085  0.04111639  0.51603645    -0.14500
F291        F  0.30421350  0.95147687  0.49658880    -0.14500
F292        F  0.17019484  0.92410538  0.05748271    -0.15900
C293        C  0.26209091  0.00427595  0.28740547     0.14100
C294        C  0.28424853  0.00738802  0.26192714     0.01100
C295        C  0.32260516  0.04238460  0.25723879     0.16100
C296        C  0.33810696  0.07463856  0.27730866     0.25500
C297        C  0.31538248  0.07234328  0.30254096    -0.40900
C298        C  0.27747221  0.03639434  0.30758591     0.32500
C299        C  0.26640257  0.97496416  0.23954783     0.01100
F300        F  0.34428674  0.04601270  0.23256195    -0.13200
F301        F  0.25510366  0.03222972  0.33198007    -0.13700
C302        C  0.23047348  0.96717791  0.22491023     0.16100
C303        C  0.21307382  0.93630998  0.20384015     0.25500
C304        C  0.23129370  0.91255758  0.19718015    -0.40800
C305        C  0.26756651  0.92069391  0.21177946     0.32400
C306        C  0.28507540  0.95183493  0.23269297     0.14100
F307        F  0.21219521  0.98951445  0.23112784    -0.13200
F308        F  0.28606838  0.89847581  0.20587079    -0.13700
F309        F  0.17744863  0.92854470  0.19090765    -0.16000
F310        F  0.31972405  0.95880623  0.24677137    -0.14500
F311        F  0.22535159  0.97010053  0.29261937    -0.14500
F312        F  0.37456583  0.10873572  0.27128316    -0.15900
C313        C  0.04735973  0.71964737  0.24761515     0.14100
C314        C  0.01685166  0.73052037  0.24730206     0.01100
C315        C  0.01582422  0.75483131  0.22444644     0.16100
C316        C  0.04528445  0.76862852  0.20222126     0.25500
C317        C  0.07677737  0.75863259  0.20259399    -0.40900
C318        C  0.07711114  0.73354395  0.22557121     0.32500
C319        C  0.98441419  0.71439219  0.26978675     0.01100
F320        F  0.98575290  0.76466964  0.22344284    -0.13200
F321        F  0.10639486  0.72266415  0.22708550    -0.13700
C322        C  0.98240884  0.74045860  0.29081271     0.16100
C323        C  0.94972285  0.72537014  0.31068642     0.25500
C324        C  0.91827196  0.68388243  0.30962625    -0.40800
C325        C  0.92140624  0.65771148  0.28889568     0.32400
C326        C  0.95413423  0.67292586  0.26926186     0.14100
F327        F  0.01187074  0.78066141  0.29180157    -0.13200
F328        F  0.89241717  0.61740442  0.28703401    -0.13700
F329        F  0.94832525  0.75178135  0.33022400    -0.16000
F330        F  0.95550102  0.64739522  0.24889810    -0.14500
F331        F  0.04852959  0.69583668  0.26952977    -0.14500
F332        F  0.04279498  0.79186010  0.18044201    -0.15900
C333        C  0.02407477  0.70490017  0.02095001     0.14100
C334        C  0.99976163  0.72329060  0.01761322     0.01100
C335        C  0.00768187  0.75692188  0.03537420     0.16100
C336        C  0.04010215  0.77274676  0.05540723     0.25500
C337        C  0.06526467  0.75509875  0.05824258    -0.40900
C338        C  0.05638634  0.72051981  0.04108941     0.32500
C339        C  0.96702621  0.71039944  0.49559701     0.01100
F340        F  0.97364265  0.76328504  0.54212613    -0.13200
F341        F  0.07911750  0.70185162  0.04362302    -0.13700
C342        C  0.93611495  0.66910011  0.49567776     0.16100
C343        C  0.90495467  0.65430712  0.47467336     0.25500
C344        C  0.90413697  0.68067204  0.45291344    -0.40800
C345        C  0.93570430  0.72224529  0.45290835     0.32400
C346        C  0.96666938  0.73686613  0.47412458     0.14100
F347        F  0.93458879  0.64039814  0.01611422    -0.13200
F348        F  0.93681099  0.74901056  0.43248021    -0.13700
F349        F  0.87558780  0.61408097  0.47589168    -0.16000
F350        F  0.99674756  0.77686507  0.47348919    -0.14500
F351        F  0.01737687  0.67252260  0.00400936    -0.14500
F352        F  0.04775262  0.80640118  0.07115987    -0.15900
C353        C  0.16132157  0.61292791  0.15025655     0.14100
C354        C  0.15019874  0.59023544  0.12419644     0.01100
C355        C  0.14041364  0.60570773  0.09941847     0.16100
C356        C  0.14426023  0.64455118  0.10010230     0.25500
C357        C  0.15780318  0.66857924  0.12576619    -0.40900
C358        C  0.16472391  0.65150782  0.15117509     0.32500
C359        C  0.15351533  0.55292124  0.12209526     0.01100
F360        F  0.12855807  0.58373806  0.07418693    -0.13200
F361        F  0.17709989  0.67289334  0.17662530    -0.13700
C362        C  0.13269020  0.52032306  0.14192307     0.16100
C363        C  0.14017743  0.48753009  0.14211241     0.25500
C364        C  0.16823751  0.48672539  0.12220010    -0.40800
C365        C  0.18777087  0.51864010  0.10160667     0.32400
C366        C  0.18072532  0.55156613  0.10173832     0.14100
F367        F  0.10558914  0.52062054  0.16136439    -0.13200
F368        F  0.21555680  0.51925003  0.08236211    -0.13700
F369        F  0.12003920  0.45664007  0.16172110    -0.16000
F370        F  0.20231954  0.58331178  0.08301441    -0.14500
F371        F  0.17173146  0.59900070  0.17435654    -0.14500
F372        F  0.13604028  0.65899639  0.07527701    -0.15900
C373        C  0.66604773  0.96400744  0.23202459     0.14100
C374        C  0.70821452  0.98854270  0.23736890     0.01100
C375        C  0.73587776  0.98139749  0.22137342     0.16100
C376        C  0.72164286  0.94964286  0.20083062     0.25500
C377        C  0.67924978  0.92424271  0.19582090    -0.40900
C378        C  0.65165562  0.93226129  0.21148588     0.32500
C379        C  0.72348426  0.02112718  0.25998262     0.01100
F380        F  0.77687554  0.00523504  0.22573635    -0.13200
F381        F  0.61054990  0.90921625  0.20721963    -0.13700
C382        C  0.74668672  0.02003020  0.28364758     0.16100
C383        C  0.76321771  0.05180723  0.30417409     0.25500
C384        C  0.75700857  0.08565719  0.30144773    -0.40800
C385        C  0.73207265  0.08564650  0.27830671     0.32400
C386        C  0.71561362  0.05374422  0.25780600     0.14100
F387        F  0.75331145  0.98796666  0.28690851    -0.13200
F388        F  0.72448468  0.11704754  0.27482153    -0.13700
F389        F  0.78542705  0.04928721  0.32666034    -0.16000
F390        F  0.69313501  0.05546232  0.23517752    -0.14500
F391        F  0.63862531  0.96998016  0.24738255    -0.14500
F392        F  0.74947435  0.94312963  0.18656714    -0.15900
C393        C  0.67234577  0.96073181  0.01214043     0.14100
C394        C  0.71488285  0.98619223  0.00924152     0.01100
C395        C  0.74124615  0.97990392  0.02742105     0.16100
C396        C  0.72529281  0.94849109  0.04831313     0.25500
C397        C  0.68254195  0.92264441  0.05128353    -0.40900
C398        C  0.65625308  0.92905430  0.03281398     0.32500
C399        C  0.73044774  0.01835541  0.48600079     0.01100
F400        F  0.78251390  0.00436060  0.02497196    -0.13200
F401        F  0.61491234  0.90478806  0.03475956    -0.13700
C402        C  0.72443287  0.05194616  0.48937397     0.16100
C403        C  0.74015208  0.08371648  0.46884857     0.25500
C404        C  0.76258076  0.08273594  0.44435749    -0.40800
C405        C  0.76794426  0.04843311  0.44083899     0.32400
C406        C  0.75209206  0.01665940  0.46154061     0.14100
F407        F  0.70397206  0.05440679  0.51304733    -0.13200
F408        F  0.78902130  0.04571092  0.41766911    -0.13700
F409        F  0.73358350  0.11560424  0.47333543    -0.16000
F410        F  0.75763049  0.98402712  0.45760707    -0.14500
F411        F  0.64527386  0.96844554  0.49572262    -0.14500
F412        F  0.75179082  0.94256238  0.06490331    -0.15900
C413        C  0.66548767  0.72847373  0.00532031     0.14100
C414        C  0.70197830  0.72831402  0.01051386     0.01100
C415        C  0.72354036  0.74457038  0.03665894     0.16100
C416        C  0.70928226  0.76198393  0.05719989     0.25500
C417        C  0.67301887  0.76312014  0.05185742    -0.40900
C418        C  0.65094643  0.74556183  0.02580415     0.32500
C419        C  0.71814564  0.71420082  0.48703683     0.01100
F420        F  0.75874616  0.74411107  0.04202404    -0.13200
F421        F  0.61597596  0.74607586  0.01954432    -0.13700
C422        C  0.74222209  0.73885884  0.46381834     0.16100
C423        C  0.75805528  0.72321636  0.44301459     0.25500
C424        C  0.74985344  0.68234650  0.44507488    -0.40800
C425        C  0.72468728  0.65755496  0.46830129     0.32400
C426        C  0.70922640  0.67349712  0.48905757     0.14100
F427        F  0.75106439  0.77843218  0.46168556    -0.13200
F428        F  0.71542159  0.61795783  0.47144226    -0.13700
F429        F  0.78228645  0.74856996  0.42141650    -0.16000
F430        F  0.68580587  0.64927423  0.51141551    -0.14500
F431        F  0.64461658  0.71552881  0.47910451    -0.14500
F432        F  0.73092151  0.77759130  0.08227447    -0.15900
C433        C  0.68275650  0.73714258  0.24241730     0.14100
C434        C  0.71384503  0.72974562  0.23297108     0.01100
C435        C  0.72872500  0.74022487  0.20423329     0.16100
C436        C  0.71293955  0.75828070  0.18524101     0.25500
C437        C  0.68192906  0.76632062  0.19473618    -0.40900
C438        C  0.66696975  0.75524846  0.22362732     0.32500
C439        C  0.73176371  0.71283322  0.25381858     0.01100
F440        F  0.75870219  0.73312520  0.19462457    -0.13200
F441        F  0.63788853  0.76304677  0.23417996    -0.13700
C442        C  0.71211146  0.67054938  0.25951000     0.16100
C443        C  0.72732193  0.65505184  0.28103868     0.25500
C444        C  0.76234434  0.68174230  0.29758284    -0.40800
C445        C  0.78240007  0.72413956  0.29121373     0.32400
C446        C  0.76725063  0.73940149  0.26953170     0.14100
F447        F  0.67797608  0.64428960  0.24429504    -0.13200
F448        F  0.81724447  0.75091342  0.30551706    -0.13700
F449        F  0.70725892  0.61396792  0.28597954    -0.16000
F450        F  0.78700152  0.78034762  0.26405341    -0.14500
F451        F  0.66831939  0.72763975  0.27024668    -0.14500
F452        F  0.72802985  0.76772980  0.15756228    -0.15900
C453        C  0.44122782  0.82437479  0.14614369     0.14100
C454        C  0.43588990  0.84598735  0.12309965     0.01100
C455        C  0.46631435  0.86392971  0.10139756     0.16100
C456        C  0.50082098  0.85904162  0.10220016     0.25500
C457        C  0.50564456  0.83634711  0.12492666    -0.40900
C458        C  0.47567597  0.81971764  0.14714855     0.32500
C459        C  0.39656418  0.84580051  0.12059459     0.01100
F460        F  0.46222415  0.88556980  0.07914489    -0.13200
F461        F  0.47818299  0.79660029  0.16901436    -0.13700
C462        C  0.38190553  0.85886767  0.14410374     0.16100
C463        C  0.34136285  0.85068173  0.14436113     0.25500
C464        C  0.31472951  0.82947877  0.12091705    -0.40800
C465        C  0.33066349  0.81952221  0.09631967     0.32400
C466        C  0.37106805  0.82740243  0.09627113     0.14100
F467        F  0.40653844  0.87831778  0.16732926    -0.13200
F468        F  0.30653872  0.79979420  0.07295011    -0.13700
F469        F  0.32805760  0.86279532  0.16787526    -0.16000
F470        F  0.38431080  0.81433189  0.07326270    -0.14500
F471        F  0.41169163  0.80546758  0.16685055    -0.14500
F472        F  0.52908987  0.87598115  0.08047345    -0.15900
C473        C  0.44053418  0.63037241  0.14845234     0.14100
C474        C  0.43627155  0.60303497  0.12600278     0.01100
C475        C  0.46684185  0.61568203  0.10438901     0.16100
C476        C  0.50064261  0.65547744  0.10480881     0.25500
C477        C  0.50459806  0.68286521  0.12712010    -0.40900
C478        C  0.47458564  0.66986058  0.14913425     0.32500
C479        C  0.39839944  0.56261780  0.12405253     0.01100
F480        F  0.46367546  0.58958406  0.08274094    -0.13200
F481        F  0.47699723  0.69624940  0.17032541    -0.13700
C482        C  0.37279697  0.55321906  0.09952402     0.16100
C483        C  0.33496167  0.51697761  0.09871127     0.25500
C484        C  0.32180774  0.48955209  0.12258099    -0.40800
C485        C  0.34792788  0.49854072  0.14687286     0.32400
C486        C  0.38604681  0.53470066  0.14750318     0.14100
F487        F  0.38334616  0.58037002  0.07707007    -0.13200
F488        F  0.33634684  0.47262128  0.17014816    -0.13700
F489        F  0.30996293  0.51023067  0.07541774    -0.16000
F490        F  0.41065171  0.54290068  0.17123515    -0.14500
F491        F  0.41062804  0.61953912  0.16886277    -0.14500
F492        F  0.52952735  0.66727707  0.08349719    -0.15900
Fe493      Fe  0.68046522  0.84434593  0.62447237     1.65800
Fe494      Fe  0.59004128  0.80103552  0.66257471     1.73200
Fe495      Fe  0.58939791  0.80433725  0.58766995     1.54400
O496        O  0.62545697  0.86231707  0.57116975    -0.80200
O497        O  0.54706904  0.74327850  0.64809685    -0.78500
O498        O  0.68680011  0.88466713  0.59102557    -0.82700
O499        O  0.68120857  0.80394236  0.59440066    -0.77600
O500        O  0.54919434  0.82270935  0.60255309    -0.79400
O501        O  0.62319271  0.77577128  0.67956594    -0.82100
C502        C  0.65885495  0.78531241  0.57250202     0.98700
C503        C  0.66338316  0.88826148  0.57271846     1.06100
O504        O  0.61994490  0.81656389  0.62491645    -1.11100
O505        O  0.62917983  0.85702224  0.68148226    -0.73500
O506        O  0.68591470  0.88785653  0.65444946    -0.77000
O507        O  0.62530807  0.78446150  0.56749809    -0.77700
C508        C  0.66426318  0.88757911  0.67587850     0.97600
O509        O  0.68383541  0.80798791  0.65750839    -0.75700
O510        O  0.55249319  0.82389198  0.65117333    -0.80800
C511        C  0.53524599  0.72592050  0.62336070     1.00200
C512        C  0.53812395  0.82877348  0.62739891     1.06100
O513        O  0.54965433  0.74447686  0.59932768    -0.76500
C514        C  0.65963220  0.78293737  0.67656381     1.04400
Fe515      Fe  0.14715160  0.83738075  0.62772495     1.65800
Fe516      Fe  0.19331376  0.79245137  0.66478972     1.73200
Fe517      Fe  0.18915572  0.78871143  0.59013790     1.54400
O518        O  0.13169978  0.76941450  0.57274809    -0.80200
O519        O  0.25302865  0.81621364  0.65102381    -0.78500
O520        O  0.10262080  0.79763284  0.59903999    -0.82700
O521        O  0.18081926  0.87518097  0.59344102    -0.77600
O522        O  0.16861391  0.72927566  0.60399132    -0.79400
O523        O  0.21061216  0.84797361  0.68374608    -0.82100
C524        C  0.20418345  0.87472821  0.57361656     0.98700
C525        C  0.10183768  0.77510193  0.57811080     1.06100
O526        O  0.17644143  0.80612875  0.62750830    -1.11100
O527        O  0.13535883  0.76780454  0.68235529    -0.73500
O528        O  0.10964725  0.80388887  0.66215386    -0.77000
O529        O  0.21156808  0.84553588  0.57104184    -0.77700
C530        C  0.10795867  0.77793914  0.68074180     0.97600
O531        O  0.18792177  0.88123723  0.65630616    -0.75700
O532        O  0.17945179  0.73470202  0.65195901    -0.80800
C533        C  0.26913385  0.81734190  0.62638146     1.00200
C534        C  0.17039100  0.71428165  0.62845187     1.06100
O535        O  0.24849952  0.80649096  0.60278595    -0.76500
C536        C  0.20798753  0.87940532  0.67796640     1.04400
Fe537      Fe  0.15784358  0.30932005  0.62413134     1.65800
Fe538      Fe  0.20047803  0.39874453  0.58486793     1.73200
Fe539      Fe  0.20724060  0.40168490  0.65947977     1.54400
O540        O  0.15296658  0.36455898  0.68123443    -0.80200
O541        O  0.26150623  0.43649308  0.59433170    -0.78500
O542        O  0.11719718  0.30733731  0.65526847    -0.82700
O543        O  0.19458870  0.30576778  0.65656428    -0.77600
O544        O  0.18437198  0.43943836  0.64820338    -0.79400
O545        O  0.21614399  0.35958992  0.56509926    -0.82100
C546        C  0.22234264  0.33051858  0.67390036     0.98700
C547        C  0.12104622  0.33000334  0.67700272     1.06100
O548        O  0.18843054  0.36991497  0.62285221    -1.11100
O549        O  0.14095912  0.36478201  0.57047542    -0.73500
O550        O  0.11646127  0.30379015  0.59175598    -0.77000
O551        O  0.23247517  0.36804464  0.67532434    -0.77700
C552        C  0.11327776  0.32757185  0.57349053     0.97600
O553        O  0.19548048  0.30472949  0.59347638    -0.75700
O554        O  0.18706057  0.44228183  0.59953528    -0.80800
C555        C  0.28086523  0.45293470  0.61770271     1.00200
C556        C  0.18124610  0.45429540  0.62403905     1.06100
O557        O  0.26415530  0.44321700  0.64278313    -0.76500
C558        C  0.21411706  0.32575467  0.57105133     1.04400
Fe559      Fe  0.83204604  0.68426448  0.87679997     1.65800
Fe560      Fe  0.79161899  0.59432179  0.83891692     1.73200
Fe561      Fe  0.78486670  0.59271911  0.91308309     1.54400
O562        O  0.84223527  0.62540127  0.93137365    -0.80200
O563        O  0.73424231  0.54847754  0.85134989    -0.78500
O564        O  0.86752202  0.68824488  0.91304973    -0.82700
O565        O  0.78872187  0.68613534  0.90353074    -0.77600
O566        O  0.79961687  0.54938114  0.89995449    -0.79400
O567        O  0.76467586  0.62554028  0.82099360    -0.82100
C568        C  0.76943940  0.66490158  0.92575080     0.98700
C569        C  0.86922497  0.66318591  0.93096757     1.06100
O570        O  0.80282555  0.62387435  0.87626201    -1.11100
O571        O  0.84726380  0.63540839  0.82101168    -0.73500
O572        O  0.87884800  0.68939719  0.85038119    -0.77000
O573        O  0.76773400  0.63128755  0.93188383    -0.77700
C574        C  0.87843541  0.66909475  0.82811946     0.97600
O575        O  0.80065107  0.68812537  0.84036064    -0.75700
O576        O  0.81763752  0.56033920  0.85302363    -0.80800
C577        C  0.71207620  0.53906803  0.87410357     1.00200
C578        C  0.81392629  0.54197800  0.87713182     1.06100
O579        O  0.72555194  0.55696358  0.89845980    -0.76500
C580        C  0.77480012  0.66316912  0.82194564     1.04400
Fe581      Fe  0.84530665  0.16098466  0.87439269     1.65800
Fe582      Fe  0.79779319  0.20532428  0.91001738     1.73200
Fe583      Fe  0.80203104  0.20726901  0.83550416     1.54400
O584        O  0.85816757  0.22355675  0.81691631    -0.80200
O585        O  0.73801489  0.18015876  0.89623148    -0.78500
O586        O  0.88993234  0.20102368  0.84598216    -0.82700
O587        O  0.81175349  0.12246507  0.83996048    -0.77600
O588        O  0.82588348  0.26740147  0.84788100    -0.79400
O589        O  0.78143609  0.15025730  0.93003246    -0.82100
C590        C  0.78587631  0.12087293  0.82129902     0.98700
C591        C  0.88929190  0.22063480  0.82359352     1.06100
O592        O  0.81517628  0.19121901  0.87330697    -1.11100
O593        O  0.85539071  0.23122469  0.92796852    -0.73500
O594        O  0.88272885  0.19579581  0.90891194    -0.77000
O595        O  0.77695283  0.14903715  0.81902547    -0.77700
C596        C  0.88337070  0.22190001  0.92692256     0.97600
O597        O  0.80441205  0.11708890  0.90306539    -0.75700
O598        O  0.81195062  0.26293433  0.89548912    -0.80800
C599        C  0.72262279  0.18112977  0.87178293     1.00200
C600        C  0.82404749  0.28331631  0.87183658     1.06100
O601        O  0.74367518  0.19313816  0.84841020    -0.76500
C602        C  0.78442931  0.11884500  0.92483574     1.04400
Fe603      Fe  0.30964432  0.14965030  0.87523372     1.65800
Fe604      Fe  0.39935699  0.19238480  0.91428328     1.73200
Fe605      Fe  0.40207680  0.19488366  0.83955324     1.54400
O606        O  0.36739804  0.13790295  0.82128459    -0.80200
O607        O  0.44064973  0.25179622  0.90219107    -0.78500
O608        O  0.30627044  0.11035457  0.84262483    -0.82700
O609        O  0.30771685  0.18954755  0.84470460    -0.77600
O610        O  0.44237862  0.17635884  0.85340972    -0.79400
O611        O  0.36365734  0.21375848  0.93207365    -0.82100
C612        C  0.33137026  0.21171894  0.82427522     0.98700
C613        C  0.33054554  0.10930139  0.82387355     1.06100
O614        O  0.37031867  0.17898036  0.87636337    -1.11100
O615        O  0.36183502  0.13487377  0.93105509    -0.73500
O616        O  0.30385524  0.10590999  0.90555447    -0.77000
O617        O  0.36641137  0.21557032  0.82023708    -0.77700
C618        C  0.32628722  0.10500218  0.92600170     0.97600
O619        O  0.30477454  0.18500032  0.90773108    -0.75700
O620        O  0.43911083  0.17264996  0.90191713    -0.80800
C621        C  0.45318633  0.27103102  0.87815329     1.00200
C622        C  0.45357880  0.16912026  0.87778772     1.06100
O623        O  0.44049930  0.25389965  0.85349099    -0.76500
C624        C  0.32784148  0.20781027  0.92803937     1.04400
C625        C  0.62512306  0.18089778  0.85167445     0.14100
C626        C  0.59721897  0.15325921  0.87224216     0.01100
C627        C  0.60985860  0.13245585  0.89133182     0.16100
C628        C  0.65035226  0.14042871  0.89062955     0.25500
C629        C  0.67878260  0.16926131  0.87069609    -0.40900
C630        C  0.66544981  0.18873566  0.85081117     0.32500
C631        C  0.55651655  0.14973125  0.87543329     0.01100
F632        F  0.58312536  0.10495886  0.91096657    -0.13200
F633        F  0.69206793  0.21735987  0.83170273    -0.13700
C634        C  0.52943833  0.13785669  0.85159044     0.16100
C635        C  0.49458471  0.14196072  0.85287067     0.25500
C636        C  0.48627998  0.15814432  0.87807040    -0.40800
C637        C  0.51205098  0.16730551  0.90266765     0.32400
C638        C  0.54686593  0.16320216  0.90128777     0.14100
F639        F  0.53759589  0.12364030  0.82666966    -0.13200
F640        F  0.50536851  0.18306023  0.92740856    -0.13700
F641        F  0.46958009  0.13108461  0.82914828    -0.16000
F642        F  0.57280392  0.17528917  0.92452416    -0.14500
F643        F  0.61395380  0.20221147  0.83352790    -0.14500
F644        F  0.66180331  0.12017720  0.90957569    -0.15900
C645        C  0.60011940  0.46710916  0.89170742     0.14100
C646        C  0.59124170  0.43416054  0.87304441     0.01100
C647        C  0.62093403  0.43711503  0.85317217     0.16100
C648        C  0.65977386  0.47201190  0.85273887     0.25500
C649        C  0.66953361  0.50456377  0.87230665    -0.40900
C650        C  0.63902000  0.50218466  0.89133400     0.32500
C651        C  0.55274427  0.39494423  0.87617762     0.01100
F652        F  0.61301138  0.40512531  0.83535282    -0.13200
F653        F  0.64696243  0.53356158  0.90976294    -0.13700
C654        C  0.52361626  0.38045622  0.85364292     0.16100
C655        C  0.48991554  0.34073417  0.85494388     0.25500
C656        C  0.48520940  0.31481048  0.87872697    -0.40800
C657        C  0.51365778  0.33026988  0.90191319     0.32400
C658        C  0.54718696  0.37001737  0.90056024     0.14100
F659        F  0.52851909  0.40443226  0.83001956    -0.13200
F660        F  0.51064728  0.30615009  0.92500881    -0.13700
F661        F  0.46233281  0.32741644  0.83268797    -0.16000
F662        F  0.57570381  0.38333993  0.92220281    -0.14500
F663        F  0.57133611  0.46481694  0.91069855    -0.14500
F664        F  0.68852148  0.47271010  0.83442864    -0.15900
C665        C  0.86152415  0.47647943  0.85934510     0.14100
C666        C  0.83894644  0.44252982  0.87778111     0.01100
C667        C  0.81051290  0.44295876  0.89744203     0.16100
C668        C  0.80375917  0.47612549  0.89804754     0.25500
C669        C  0.82485872  0.50935815  0.87860701    -0.40900
C670        C  0.85446222  0.50960495  0.85966798     0.32500
C671        C  0.84219890  0.40511822  0.87511256     0.01100
F672        F  0.78749852  0.41013059  0.91498382    -0.13200
F673        F  0.87649274  0.54182301  0.84143094    -0.13700
C674        C  0.85025663  0.38814869  0.89988219     0.16100
C675        C  0.84641051  0.34932649  0.89847387     0.25500
C676        C  0.83459208  0.32682073  0.87217395    -0.40800
C677        C  0.82930039  0.34513673  0.84687216     0.32400
C678        C  0.83282162  0.38382748  0.84841000     0.14100
F679        F  0.86055600  0.40867406  0.92572847    -0.13200
F680        F  0.81790361  0.32454754  0.82106325    -0.13700
F681        F  0.85336447  0.33339974  0.92305736    -0.16000
F682        F  0.82421728  0.39920976  0.82425031    -0.14500
F683        F  0.89002416  0.47725461  0.84076793    -0.14500
F684        F  0.77477454  0.47447100  0.91657681    -0.15900
C685        C  0.02199630  0.25426413  0.52692293     0.14100
C686        C  0.01152966  0.28114575  0.51320263     0.01100
C687        C  0.03311316  0.32294926  0.52048833     0.16100
C688        C  0.06545488  0.33791319  0.54059936     0.25500
C689        C  0.07665407  0.31119245  0.55410013    -0.40900
C690        C  0.05413185  0.26903731  0.54722301     0.32500
C691        C  0.98012713  0.27444949  0.99075834     0.01100
F692        F  0.03792516  0.35897197  0.99804445    -0.13200
F693        F  0.06419324  0.24223033  0.55918290    -0.13700
C694        C  0.94005616  0.26410311  0.99840839     0.16100
C695        C  0.90886289  0.24791232  0.97740335     0.25500
C696        C  0.91716966  0.24121226  0.94846026    -0.40800
C697        C  0.95747925  0.25181581  0.94086165     0.32400
C698        C  0.98877270  0.26864917  0.96183155     0.14100
F699        F  0.93752818  0.28244378  0.52143848    -0.13200
F700        F  0.96664707  0.24625709  0.91311075    -0.13700
F701        F  0.87014391  0.23718035  0.98569120    -0.16000
F702        F  0.02746967  0.27862739  0.95410749    -0.14500
F703        F  0.00113113  0.21360889  0.52050753    -0.14500
F704        F  0.08594968  0.37868895  0.54664916    -0.15900
C705        C  0.98916259  0.24479017  0.78626494     0.14100
C706        C  0.99217148  0.27206453  0.76408161     0.01100
C707        C  0.96232246  0.28393356  0.76244777     0.16100
C708        C  0.92964926  0.26828484  0.78226469     0.25500
C709        C  0.92576721  0.23989044  0.80402054    -0.40900
C710        C  0.95623133  0.22862433  0.80587514     0.32500
C711        C  0.02555584  0.28705192  0.74203969     0.01100
F712        F  0.96401964  0.30973756  0.74098514    -0.13200
F713        F  0.95370883  0.20095665  0.82607771    -0.13700
C714        C  0.03164156  0.25903989  0.72554054     0.16100
C715        C  0.06241641  0.27297759  0.70426703     0.25500
C716        C  0.08751929  0.31526151  0.69882032    -0.40800
C717        C  0.08150741  0.34329823  0.71545097     0.32400
C718        C  0.05094651  0.32931335  0.73691272     0.14100
F719        F  0.00740101  0.21801525  0.72975971    -0.13200
F720        F  0.10492211  0.38431620  0.71076448    -0.13700
F721        F  0.06836513  0.24504321  0.68960073    -0.16000
F722        F  0.04655362  0.35715214  0.75301784    -0.14500
F723        F  0.01814059  0.23361855  0.78891607    -0.14500
F724        F  0.90164742  0.28077132  0.77983610    -0.15900
C725        C  0.33089280  0.27812549  0.76137938     0.14100
C726        C  0.28953052  0.26745539  0.76043021     0.01100
C727        C  0.26243224  0.24059696  0.78168848     0.16100
C728        C  0.27613785  0.22357624  0.80308227     0.25500
C729        C  0.31741930  0.23295615  0.80355016    -0.40900
C730        C  0.34477416  0.26118348  0.78266292     0.32500
C731        C  0.27445807  0.28394137  0.73707712     0.01100
F732        F  0.22250224  0.23078720  0.78167713    -0.13200
F733        F  0.38504690  0.27222215  0.78243469    -0.13700
C734        C  0.24529712  0.25737279  0.71677546     0.16100
C735        C  0.22954103  0.27253105  0.69549493     0.25500
C736        C  0.24248070  0.31480430  0.69419688    -0.40800
C737        C  0.27300634  0.34149605  0.71407278     0.32400
C738        C  0.28873146  0.32614666  0.73521345     0.14100
F739        F  0.23197594  0.21654667  0.71763099    -0.13200
F740        F  0.28722068  0.38250401  0.71365004    -0.13700
F741        F  0.20098811  0.24547049  0.67662364    -0.16000
F742        F  0.31702072  0.35244915  0.75457016    -0.14500
F743        F  0.35768580  0.30410004  0.74107875    -0.14500
F744        F  0.24859729  0.19716730  0.82282197    -0.15900
C745        C  0.32428031  0.27416879  0.98903241     0.14100
C746        C  0.28210238  0.26008649  0.99107434     0.01100
C747        C  0.25511132  0.23005768  0.97133778     0.16100
C748        C  0.26987892  0.21354587  0.95047410     0.25500
C749        C  0.31218617  0.22733640  0.94855024    -0.40900
C750        C  0.33925015  0.25848478  0.96776963     0.32500
C751        C  0.26799106  0.27885118  0.51061221     0.01100
F752        F  0.21572188  0.20395259  0.48240182    -0.13200
F753        F  0.38038219  0.27382686  0.96622450    -0.13700
C754        C  0.26448953  0.31297714  0.50309615     0.16100
C755        C  0.24749156  0.32853726  0.52280871     0.25500
C756        C  0.23384493  0.31022288  0.55064757    -0.40800
C757        C  0.23857798  0.27649829  0.55831526     0.32400
C758        C  0.25538232  0.26090098  0.53834847     0.14100
F759        F  0.31302931  0.34578845  0.99775158    -0.13200
F760        F  0.22702335  0.25850572  0.58506780    -0.13700
F761        F  0.24349981  0.36087027  0.51414011    -0.16000
F762        F  0.25937887  0.22823124  0.54603600    -0.14500
F763        F  0.35106857  0.30249694  0.00815785    -0.14500
F764        F  0.24247411  0.18337141  0.93269902    -0.15900
C765        C  0.27227636  0.94637449  0.51340937     0.14100
C766        C  0.25535423  0.97177050  0.50937368     0.01100
C767        C  0.22204123  0.96573432  0.52667809     0.16100
C768        C  0.20585506  0.93474675  0.54788961     0.25500
C769        C  0.22265982  0.90898151  0.55209374    -0.40900
C770        C  0.25610357  0.91520709  0.53448114     0.32500
C771        C  0.27720525  0.00259221  0.98588939     0.01100
F772        F  0.20539225  0.99016927  0.52317236    -0.13200
F773        F  0.27342845  0.89132306  0.53763630    -0.13700
C774        C  0.25629994  0.99991548  0.95980175     0.16100
C775        C  0.27267270  0.03247878  0.93974105     0.25500
C776        C  0.31029057  0.06847591  0.94556958    -0.40800
C777        C  0.33182266  0.07000915  0.97135521     0.32400
C778        C  0.31536854  0.03744460  0.99120258     0.14100
F779        F  0.21994969  0.96571209  0.95381789    -0.13200
F780        F  0.36834749  0.10353524  0.97809516    -0.13700
F781        F  0.25146059  0.02872079  0.91480118    -0.16000
F782        F  0.33610148  0.04062467  0.01629722    -0.14500
F783        F  0.31344072  0.95529031  0.00261589    -0.14500
F784        F  0.17310922  0.92948846  0.56377918    -0.15900
C785        C  0.26004589  0.00689933  0.78794096     0.14100
C786        C  0.28197846  0.00966989  0.76242636     0.01100
C787        C  0.32090957  0.04395835  0.75793922     0.16100
C788        C  0.33729505  0.07583175  0.77828040     0.25500
C789        C  0.31486641  0.07392235  0.80359327    -0.40900
C790        C  0.27628374  0.03863590  0.80839824     0.32500
C791        C  0.26379778  0.97720418  0.74011926     0.01100
F792        F  0.34246328  0.04723258  0.73326486    -0.13200
F793        F  0.25397200  0.03474275  0.83277326    -0.13700
C794        C  0.22736953  0.96890615  0.72595057     0.16100
C795        C  0.20980424  0.93788191  0.70498337     0.25500
C796        C  0.22837532  0.91458525  0.69802024    -0.40800
C797        C  0.26504254  0.92316809  0.71216894     0.32400
C798        C  0.28270335  0.95439738  0.73295266     0.14100
F799        F  0.20878754  0.99085033  0.73252456    -0.13200
F800        F  0.28377068  0.90126308  0.70592592    -0.13700
F801        F  0.17370549  0.92942041  0.69249396    -0.16000
F802        F  0.31774145  0.96175037  0.74663368    -0.14500
F803        F  0.22276851  0.97335610  0.79300690    -0.14500
F804        F  0.37450925  0.10908605  0.77251760    -0.15900
C805        C  0.04289234  0.72183919  0.74705259     0.14100
C806        C  0.01178874  0.73179489  0.74540625     0.01100
C807        C  0.01106876  0.75537860  0.72189927     0.16100
C808        C  0.04149396  0.76934237  0.70036180     0.25500
C809        C  0.07350257  0.76014750  0.70210897    -0.40900
C810        C  0.07349257  0.73582013  0.72570695     0.32500
C811        C  0.97912315  0.71604354  0.76766501     0.01100
F812        F  0.98050514  0.76439908  0.71962119    -0.13200
F813        F  0.10343064  0.72603941  0.72862992    -0.13700
C814        C  0.97530359  0.74285841  0.78701399     0.16100
C815        C  0.94354682  0.72760655  0.80762278     0.25500
C816        C  0.91492446  0.68524807  0.80891040    -0.40800
C817        C  0.91981828  0.65847062  0.78992770     0.32400
C818        C  0.95153746  0.67381549  0.76948511     0.14100
F819        F  0.00226150  0.78380846  0.78582477    -0.13200
F820        F  0.89377074  0.61730173  0.79095300    -0.13700
F821        F  0.94006747  0.75445359  0.82552867    -0.16000
F822        F  0.95474191  0.64748880  0.75085222    -0.14500
F823        F  0.04394666  0.69901690  0.76972988    -0.14500
F824        F  0.03944026  0.79192984  0.67790769    -0.15900
C825        C  0.03009541  0.71379318  0.51582213     0.14100
C826        C  0.00029985  0.72557568  0.51750358     0.01100
C827        C  0.00255350  0.75196465  0.53995855     0.16100
C828        C  0.03462417  0.76695868  0.56030213     0.25500
C829        C  0.06542802  0.75605926  0.55836647    -0.40900
C830        C  0.06237793  0.72886694  0.53592271     0.32500
C831        C  0.96666033  0.70789167  0.99529289     0.01100
F832        F  0.98404302  0.77464313  0.03324024    -0.13200
F833        F  0.09091118  0.71716933  0.53296710    -0.13700
C834        C  0.93550141  0.66657487  0.99524773     0.16100
C835        C  0.90443006  0.65195637  0.97417044     0.25500
C836        C  0.90344133  0.67852872  0.95266730    -0.40800
C837        C  0.93489941  0.72007163  0.95285503     0.32400
C838        C  0.96617044  0.73443445  0.97382442     0.14100
F839        F  0.93589932  0.64312090  0.51642160    -0.13200
F840        F  0.93564720  0.74708939  0.93280400    -0.13700
F841        F  0.87505637  0.61171905  0.97526111    -0.16000
F842        F  0.99642724  0.77434751  0.97288873    -0.14500
F843        F  0.02845794  0.68839724  0.49413368    -0.14500
F844        F  0.03583343  0.79291406  0.58139427    -0.15900
C845        C  0.18283322  0.62427567  0.65061163     0.14100
C846        C  0.16032403  0.59554042  0.62884411     0.01100
C847        C  0.13898338  0.60481746  0.60782722     0.16100
C848        C  0.14087137  0.64288879  0.60816632     0.25500
C849        C  0.16419688  0.67224166  0.62960930    -0.40900
C850        C  0.18476272  0.66224683  0.65106609     0.32500
C851        C  0.16230733  0.55753064  0.62664175     0.01100
F852        F  0.11696384  0.57720148  0.58666161    -0.13200
F853        F  0.20894007  0.69013306  0.67146219    -0.13700
C854        C  0.14570176  0.52756341  0.64871489     0.16100
C855        C  0.15068786  0.49318023  0.64757251     0.25500
C856        C  0.17247974  0.48841694  0.62430583    -0.40800
C857        C  0.18849300  0.51835175  0.60199953     0.32400
C858        C  0.18348035  0.55257894  0.60323594     0.14100
F859        F  0.12504187  0.53189672  0.67149266    -0.13200
F860        F  0.21100713  0.51576023  0.57975577    -0.13700
F861        F  0.13431664  0.46467624  0.66921780    -0.16000
F862        F  0.20106196  0.58200408  0.58227616    -0.14500
F863        F  0.20488643  0.61642415  0.67046470    -0.14500
F864        F  0.12031001  0.65116626  0.58734281    -0.15900
C865        C  0.67231464  0.95879385  0.73774074     0.14100
C866        C  0.71396673  0.98879514  0.73660155     0.01100
C867        C  0.73873398  0.98699687  0.71439691     0.16100
C868        C  0.72242677  0.95495121  0.69407788     0.25500
C869        C  0.68087178  0.92375785  0.69571392    -0.40900
C870        C  0.65584254  0.92663924  0.71754004     0.32500
C871        C  0.73163500  0.02182641  0.75873276     0.01100
F872        F  0.77885253  0.01642844  0.71238660    -0.13200
F873        F  0.61538178  0.89824009  0.71964443    -0.13700
C874        C  0.76257806  0.02542358  0.77769659     0.16100
C875        C  0.77959054  0.05687132  0.79849601     0.25500
C876        C  0.76599367  0.08555158  0.80067644    -0.40800
C877        C  0.73437151  0.08125390  0.78172000     0.32400
C878        C  0.71751448  0.04977215  0.76101946     0.14100
F879        F  0.77618977  0.99822418  0.77614605    -0.13200
F880        F  0.71973886  0.10764761  0.78286771    -0.13700
F881        F  0.80987987  0.05949296  0.81605355    -0.16000
F882        F  0.68793197  0.04712674  0.74265743    -0.14500
F883        F  0.64775702  0.96003754  0.75898982    -0.14500
F884        F  0.74773697  0.95422093  0.67323667    -0.15900
C885        C  0.67114878  0.96179188  0.51249859     0.14100
C886        C  0.71361288  0.98505011  0.50803830     0.01100
C887        C  0.73978556  0.97728522  0.52531437     0.16100
C888        C  0.72371133  0.94662835  0.54683521     0.25500
C889        C  0.68093916  0.92300303  0.55144493    -0.40900
C890        C  0.65490884  0.93113239  0.53389954     0.32500
C891        C  0.73172518  0.01939446  0.98723175     0.01100
F892        F  0.78103278  0.99975961  0.52153604    -0.13200
F893        F  0.61355066  0.90937048  0.53721430    -0.13700
C894        C  0.72550918  0.05288849  0.99022159     0.16100
C895        C  0.74177152  0.08467412  0.96968327     0.25500
C896        C  0.76477080  0.08359089  0.94556243    -0.40800
C897        C  0.77032523  0.04937006  0.94251710     0.32400
C898        C  0.75403863  0.01770904  0.96323118     0.14100
F899        F  0.70440278  0.05526309  0.01351931    -0.13200
F900        F  0.79196248  0.04655467  0.91976115    -0.13700
F901        F  0.73525864  0.11666276  0.97380449    -0.16000
F902        F  0.75988299  0.98519034  0.95981756    -0.14500
F903        F  0.64641425  0.96617084  0.99452449    -0.14500
F904        F  0.75011898  0.93960966  0.56262483    -0.15900
C905        C  0.66585848  0.73121317  0.50431625     0.14100
C906        C  0.70237342  0.73100063  0.50930983     0.01100
C907        C  0.72381736  0.74688383  0.53553072     0.16100
C908        C  0.70937173  0.76374070  0.55640075     0.25500
C909        C  0.67291607  0.76482368  0.55138624    -0.40900
C910        C  0.65110438  0.74781904  0.52509863     0.32500
C911        C  0.71783210  0.71166591  0.98831969     0.01100
F912        F  0.75912041  0.74653562  0.54071876    -0.13200
F913        F  0.61583337  0.74782172  0.51903088    -0.13700
C914        C  0.73990877  0.73575322  0.96427998     0.16100
C915        C  0.75569058  0.72030056  0.94337030     0.25500
C916        C  0.74942496  0.68021985  0.94618671    -0.40800
C917        C  0.72613393  0.65587740  0.97020474     0.32400
C918        C  0.71071785  0.67165273  0.99107658     0.14100
F919        F  0.74687558  0.77463022  0.96143752    -0.13200
F920        F  0.71855817  0.61689860  0.97391432    -0.13700
F921        F  0.77798920  0.74510396  0.92090245    -0.16000
F922        F  0.68896972  0.64793495  0.01415770    -0.14500
F923        F  0.64418829  0.71241711  0.98017651    -0.14500
F924        F  0.73147872  0.77935252  0.58129694    -0.15900
C925        C  0.67318454  0.73195546  0.74447291     0.14100
C926        C  0.70568751  0.72587275  0.73624623     0.01100
C927        C  0.72211089  0.73737376  0.70786209     0.16100
C928        C  0.70692200  0.75538101  0.68831574     0.25500
C929        C  0.67468621  0.76202386  0.69664738    -0.40900
C930        C  0.65775826  0.74965960  0.72493343     0.32500
C931        C  0.72337783  0.70905830  0.75768811     0.01100
F932        F  0.75277806  0.73089021  0.69897607    -0.13200
F933        F  0.62728896  0.75620234  0.73424459    -0.13700
C934        C  0.69876003  0.67042063  0.77083010     0.16100
C935        C  0.71534311  0.65533248  0.79166119     0.25500
C936        C  0.75672201  0.67891121  0.80014178    -0.40800
C937        C  0.78136001  0.71736049  0.78677577     0.32400
C938        C  0.76492094  0.73217457  0.76571838     0.14100
F939        F  0.65870244  0.64707322  0.76323361    -0.13200
F940        F  0.82180192  0.74016754  0.79348783    -0.13700
F941        F  0.69072889  0.61798964  0.80394536    -0.16000
F942        F  0.78952759  0.76954343  0.75348087    -0.14500
F943        F  0.65731539  0.72213760  0.77192767    -0.14500
F944        F  0.72351843  0.76588096  0.66110144    -0.15900
C945        C  0.44255315  0.82927507  0.65186966     0.14100
C946        C  0.43551324  0.84891833  0.62827088     0.01100
C947        C  0.46481157  0.86585932  0.60573389     0.16100
C948        C  0.49929846  0.86095040  0.60590433     0.25500
C949        C  0.50530713  0.83949643  0.62886758    -0.40900
C950        C  0.47718101  0.82486344  0.65229543     0.32500
C951        C  0.39540977  0.84711495  0.62578931     0.01100
F952        F  0.45939134  0.88617568  0.58316237    -0.13200
F953        F  0.48143337  0.80348590  0.67466558    -0.13700
C954        C  0.38047487  0.86075745  0.64877800     0.16100
C955        C  0.33986244  0.85239145  0.64860514     0.25500
C956        C  0.31344283  0.83046967  0.62522948    -0.40800
C957        C  0.32935035  0.81897599  0.60143899     0.32400
C958        C  0.36979134  0.82707204  0.60181472     0.14100
F959        F  0.40497238  0.88125096  0.67182206    -0.13200
F960        F  0.30518379  0.79762259  0.57848694    -0.13700
F961        F  0.32631393  0.86512708  0.67162814    -0.16000
F962        F  0.38305715  0.81280971  0.57954433    -0.14500
F963        F  0.41434558  0.81167652  0.67357754    -0.14500
F964        F  0.52640393  0.87656142  0.58338705    -0.15900
C965        C  0.43738278  0.62773238  0.64095182     0.14100
C966        C  0.43627548  0.60151993  0.61866929     0.01100
C967        C  0.46847886  0.61599989  0.59829602     0.16100
C968        C  0.50121142  0.65631801  0.60006370     0.25500
C969        C  0.50228736  0.68260158  0.62239406    -0.40900
C970        C  0.47016752  0.66781476  0.64291381     0.32500
C971        C  0.40020266  0.55994003  0.61611228     0.01100
F972        F  0.46814836  0.59109754  0.57670296    -0.13200
F973        F  0.46937538  0.69281281  0.66398844    -0.13700
C974        C  0.37491397  0.54919963  0.59130470     0.16100
C975        C  0.33715976  0.51275066  0.59095873     0.25500
C976        C  0.32389849  0.48667486  0.61563180    -0.40800
C977        C  0.35062638  0.49622278  0.63962091     0.32400
C978        C  0.38850006  0.53251249  0.63978949     0.14100
F979        F  0.38536287  0.57544268  0.56828124    -0.13200
F980        F  0.33959778  0.47106720  0.66331587    -0.13700
F981        F  0.31232417  0.50474806  0.56738182    -0.16000
F982        F  0.41317742  0.54174451  0.66358499    -0.14500
F983        F  0.40572171  0.61500229  0.66010581    -0.14500
F984        F  0.53193054  0.66958639  0.58005572    -0.15900
loop_ 
_geom_bond_atom_site_label_1 
_geom_bond_atom_site_label_2 
_geom_bond_distance 
_geom_bond_site_symmetry_2 
_ccdc_geom_bond_type 
Fe1          O17   2.066       .  S
Fe1           O7   2.077       .  S
Fe1          O14   2.086       .  S
Fe1           O6   2.063       .  S
Fe1          O12   1.971       .  S
Fe2           O5   2.050       .  S
Fe2           O9   2.078       .  S
Fe2          O13   2.050       .  S
Fe2          O18   2.074       .  S
Fe2          O12   1.967       .  S
Fe3          O21   2.069       .  S
Fe3           O8   2.059       .  S
Fe3          O15   2.045       .  S
Fe3           O4   2.065       .  S
Fe3          O12   1.970       .  S
O4           C11   1.269       .  A
O5           C19   1.266       .  A
O6           C11   1.269       .  A
O7           C10   1.272       .  A
O8           C20   1.268       .  A
O9           C22   1.271       .  A
C10          O15   1.267       .  A
C10         C417   1.481       .  S
C11         C397   1.484       .  S
O13          C16   1.267       .  A
O14          C16   1.274       .  A
C16         C377   1.490       .  S
O17          C22   1.269       .  A
O18          C20   1.271       .  A
C19          O21   1.269       .  A
C19         C477   1.470       .  S
C20         C457   1.487       .  S
C22         C437   1.495       .  S
Fe23         O39   2.063       .  S
Fe23         O29   2.077       .  S
Fe23         O36   2.072       .  S
Fe23         O28   2.066       .  S
Fe23         O34   1.977       .  S
Fe24         O27   2.062       .  S
Fe24         O31   2.049       .  S
Fe24         O35   2.059       .  S
Fe24         O40   2.056       .  S
Fe24         O34   1.975       .  S
Fe25         O43   2.067       .  S
Fe25         O30   2.052       .  S
Fe25         O37   2.045       .  S
Fe25         O26   2.065       .  S
Fe25         O34   1.975       .  S
O26          C33   1.269       .  A
O27          C41   1.269       .  A
O28          C33   1.270       .  A
O29          C32   1.271       .  A
O30          C42   1.266       .  A
O31          C44   1.265       .  A
C32          O37   1.265       .  A
C32         C277   1.481       .  S
C33         C337   1.486       .  S
O35          C38   1.269       .  A
O36          C38   1.272       .  A
C38         C317   1.491       .  S
O39          C44   1.269       .  A
O40          C42   1.266       .  A
C41          O43   1.269       .  A
C41         C464   1.487       .  S
C42         C357   1.484       .  S
C44         C304   1.476       .  S
Fe45         O61   2.063       .  S
Fe45         O51   2.079       .  S
Fe45         O58   2.076       .  S
Fe45         O50   2.057       .  S
Fe45         O56   1.972       .  S
Fe46         O49   2.055       .  S
Fe46         O53   2.056       .  S
Fe46         O57   2.056       .  S
Fe46         O62   2.051       .  S
Fe46         O56   1.972       .  S
Fe47         O65   2.070       .  S
Fe47         O52   2.061       .  S
Fe47         O59   2.061       .  S
Fe47         O48   2.060       .  S
Fe47         O56   1.971       .  S
O48          C55   1.267       .  A
O49          C63   1.267       .  A
O50          C55   1.267       .  A
O51          C54   1.273       .  A
O52          C64   1.269       .  A
O53          C66   1.268       .  A
C54          O59   1.270       .  A
C54         C244   1.494       .  S
C55         C224   1.487       .  S
O57          C60   1.266       .  A
O58          C60   1.271       .  A
C60         C197   1.492       .  S
O61          C66   1.269       .  A
O62          C64   1.267       .  A
C63          O65   1.269       .  A
C63         C484   1.478       .  S
C64         C364   1.473       .  S
C66         C264   1.481       .  S
Fe67         O83   2.082       .  S
Fe67         O73   2.075       .  S
Fe67         O80   2.072       .  S
Fe67         O72   2.077       .  S
Fe67         O78   1.979       .  S
Fe68         O71   2.060       .  S
Fe68         O75   2.067       .  S
Fe68         O79   2.048       .  S
Fe68         O84   2.066       .  S
Fe68         O78   1.972       .  S
Fe69         O87   2.068       .  S
Fe69         O74   2.063       .  S
Fe69         O81   2.053       .  S
Fe69         O70   2.061       .  S
Fe69         O78   1.976       .  S
O70          C77   1.269       .  A
O71          C85   1.268       .  A
O72          C77   1.272       .  A
O73          C76   1.271       .  A
O74          C86   1.267       .  A
O75          C88   1.271       .  A
C76          O81   1.267       .  A
C76         C424   1.492       .  S
C77         C344   1.494       .  S
O79          C82   1.265       .  A
O80          C82   1.270       .  A
C82         C324   1.488       .  S
O83          C88   1.273       .  A
O84          C86   1.268       .  A
C85          O87   1.270       .  A
C85         C157   1.485       .  S
C86         C177   1.479       .  S
C88         C444   1.493       .  S
Fe89        O105   2.068       .  S
Fe89         O95   2.082       .  S
Fe89        O102   2.084       .  S
Fe89         O94   2.070       .  S
Fe89        O100   1.965       .  S
Fe90         O93   2.059       .  S
Fe90         O97   2.061       .  S
Fe90        O101   2.053       .  S
Fe90        O106   2.073       .  S
Fe90        O100   1.962       .  S
Fe91        O109   2.057       .  S
Fe91         O96   2.061       .  S
Fe91        O103   2.060       .  S
Fe91         O92   2.051       .  S
Fe91        O100   1.966       .  S
O92          C99   1.265       .  A
O93         C107   1.266       .  A
O94          C99   1.270       .  A
O95          C98   1.274       .  A
O96         C108   1.269       .  A
O97         C110   1.269       .  A
C98         O103   1.270       .  A
C98         C384   1.492       .  S
C99         C217   1.485       .  S
O101        C104   1.268       .  A
O102        C104   1.274       .  A
C104        C204   1.489       .  S
O105        C110   1.270       .  A
O106        C108   1.272       .  A
C107        O109   1.266       .  A
C107        C137   1.475       .  S
C108        C184   1.486       .  S
C110        C404   1.491       .  S
Fe111       O127   2.076       .  S
Fe111       O117   2.062       .  S
Fe111       O124   2.061       .  S
Fe111       O116   2.072       .  S
Fe111       O122   1.964       .  S
Fe112       O115   2.073       .  S
Fe112       O119   2.043       .  S
Fe112       O123   2.071       .  S
Fe112       O128   2.047       .  S
Fe112       O122   1.961       .  S
Fe113       O131   2.056       .  S
Fe113       O118   2.074       .  S
Fe113       O125   2.073       .  S
Fe113       O114   2.050       .  S
Fe113       O122   1.962       .  S
O114        C121   1.267       .  A
O115        C129   1.270       .  A
O116        C121   1.271       .  A
O117        C120   1.269       .  A
O118        C130   1.272       .  A
O119        C132   1.267       .  A
C120        O125   1.271       .  A
C120        C237   1.485       .  S
C121        C297   1.482       .  S
O123        C126   1.269       .  A
O124        C126   1.268       .  A
C126        C284   1.491       .  S
O127        C132   1.272       .  A
O128        C130   1.266       .  A
C129        O131   1.267       .  A
C129        C164   1.484       .  S
C130        C144   1.476       .  S
C132        C257   1.480       .  S
C133        C134   1.403       .  A
C133        C138   1.393       .  A
C133        F151   1.358       .  S
C134        C139   1.473       .  S
C134        C135   1.404       .  A
C135        C136   1.399       .  A
C135        F140   1.358       .  S
C136        C137   1.408       .  A
C136        F152   1.358       .  S
C137        C138   1.408       .  A
C138        F141   1.358       .  S
C139        C142   1.404       .  A
C139        C146   1.403       .  A
C142        C143   1.397       .  A
C142        F147   1.358       .  S
C143        C144   1.408       .  A
C143        F149   1.358       .  S
C144        C145   1.409       .  A
C145        C146   1.395       .  A
C145        F148   1.358       .  S
C146        F150   1.358       .  S
C153        C154   1.403       .  A
C153        C158   1.400       .  A
C153        F171   1.358       .  S
C154        C159   1.477       .  S
C154        C155   1.402       .  A
C155        C156   1.397       .  A
C155        F160   1.358       .  S
C156        C157   1.413       .  A
C156        F172   1.358       .  S
C157        C158   1.410       .  A
C158        F161   1.358       .  S
C159        C162   1.403       .  A
C159        C166   1.402       .  A
C162        C163   1.401       .  A
C162        F167   1.358       .  S
C163        C164   1.412       .  A
C163        F169   1.358       .  S
C164        C165   1.410       .  A
C165        C166   1.396       .  A
C165        F168   1.358       .  S
C166        F170   1.358       .  S
C173        C174   1.406       .  A
C173        C178   1.401       .  A
C173        F191   1.358       .  S
C174        C179   1.483       .  S
C174        C175   1.407       .  A
C175        C176   1.396       .  A
C175        F180   1.358       .  S
C176        C177   1.407       .  A
C176        F192   1.358       .  S
C177        C178   1.407       .  A
C178        F181   1.358       .  S
C179        C182   1.405       .  A
C179        C186   1.406       .  A
C182        C183   1.398       .  A
C182        F187   1.358       .  S
C183        C184   1.411       .  A
C183        F189   1.358       .  S
C184        C185   1.410       .  A
C185        C186   1.399       .  A
C185        F188   1.358       .  S
C186        F190   1.358       .  S
C193        C194   1.401       .  A
C193        C198   1.399       .  A
C193        F211   1.358   1_455  S
C194        C691   1.477   1_454  S
C194        C195   1.401       .  A
C195        C196   1.400       .  A
C195        F692   1.358   1_554  S
C196        C197   1.415       .  A
C196        F212   1.358       .  S
C197        C198   1.412       .  A
C198        F201   1.358       .  S
C199        C686   1.482   1_655  S
C199        C202   1.402       .  A
C199        C206   1.405       .  A
F200        C687   1.358       .  S
C202        C203   1.399       .  A
C202        F699   1.358       .  S
C203        C204   1.414       .  A
C203        F209   1.358       .  S
C204        C205   1.410       .  A
C205        C206   1.401       .  A
C205        F208   1.358       .  S
C206        F210   1.358   1_655  S
F207        C694   1.358   1_554  S
C213        C214   1.403       .  A
C213        C218   1.399       .  A
C213        F231   1.358   1_655  S
C214        C219   1.472   1_655  S
C214        C215   1.399       .  A
C215        C216   1.395       .  A
C215        F220   1.358       .  S
C216        C217   1.415       .  A
C216        F232   1.358       .  S
C217        C218   1.410       .  A
C218        F221   1.358       .  S
C219        C222   1.401       .  A
C219        C226   1.400       .  A
C222        C223   1.397       .  A
C222        F227   1.358   1_455  S
C223        C224   1.413       .  A
C223        F229   1.358       .  S
C224        C225   1.414       .  A
C225        C226   1.396       .  A
C225        F228   1.358       .  S
C226        F230   1.358       .  S
C233        C234   1.404       .  A
C233        C238   1.399       .  A
C233        F251   1.358       .  S
C234        C239   1.481       .  S
C234        C235   1.404       .  A
C235        C236   1.400       .  A
C235        F240   1.358       .  S
C236        C237   1.411       .  A
C236        F252   1.358       .  S
C237        C238   1.410       .  A
C238        F241   1.358       .  S
C239        C242   1.403       .  A
C239        C246   1.402       .  A
C242        C243   1.400       .  A
C242        F247   1.358       .  S
C243        C244   1.413       .  A
C243        F249   1.358       .  S
C244        C245   1.415       .  A
C245        C246   1.400       .  A
C245        F248   1.358       .  S
C246        F250   1.358       .  S
C253        C254   1.400       .  A
C253        C258   1.395       .  A
C253        F271   1.358       .  S
C254        C751   1.468       .  S
C254        C255   1.401       .  A
C255        C256   1.396       .  A
C255        F752   1.358       .  S
C256        C257   1.411       .  A
C256        F272   1.358       .  S
C257        C258   1.412       .  A
C258        F261   1.358       .  S
C259        C746   1.482   1_554  S
C259        C262   1.405       .  A
C259        C266   1.406       .  A
F260        C747   1.358       .  S
C262        C263   1.395       .  A
C262        F759   1.358   1_554  S
C263        C264   1.410       .  A
C263        F269   1.358       .  S
C264        C265   1.409       .  A
C265        C266   1.397       .  A
C265        F268   1.358       .  S
C266        F270   1.358       .  S
F267        C754   1.358       .  S
C273        C274   1.403       .  A
C273        C278   1.397       .  A
C273        F783   1.358       .  S
C274        C771   1.477   1_564  S
C274        C275   1.404       .  A
C275        C276   1.399       .  A
C275        F280   1.358       .  S
C276        C277   1.408       .  A
C276        F292   1.358       .  S
C277        C278   1.411       .  A
C278        F281   1.358       .  S
C279        C766   1.477   1_545  S
C279        C282   1.402       .  A
C279        C286   1.401       .  A
C282        C283   1.400       .  A
C282        F287   1.358   1_545  S
C283        C284   1.414       .  A
C283        F289   1.358       .  S
C284        C285   1.414       .  A
C285        C286   1.398       .  A
C285        F288   1.358       .  S
C286        F290   1.358       .  S
F291        C765   1.358       .  S
C293        C294   1.403       .  A
C293        C298   1.396       .  A
C293        F311   1.358   1_545  S
C294        C299   1.473   1_545  S
C294        C295   1.401       .  A
C295        C296   1.396       .  A
C295        F300   1.358       .  S
C296        C297   1.412       .  A
C296        F312   1.358       .  S
C297        C298   1.410       .  A
C298        F301   1.358       .  S
C299        C302   1.403       .  A
C299        C306   1.402       .  A
C302        C303   1.395       .  A
C302        F307   1.358       .  S
C303        C304   1.407       .  A
C303        F309   1.358       .  S
C304        C305   1.410       .  A
C305        C306   1.397       .  A
C305        F308   1.358       .  S
C306        F310   1.358       .  S
C313        C314   1.400       .  A
C313        C318   1.398       .  A
C313        F331   1.358       .  S
C314        C319   1.474   1_455  S
C314        C315   1.401       .  A
C315        C316   1.398       .  A
C315        F320   1.358   1_455  S
C316        C317   1.414       .  A
C316        F332   1.358       .  S
C317        C318   1.415       .  A
C318        F321   1.358       .  S
C319        C322   1.403       .  A
C319        C326   1.399       .  A
C322        C323   1.401       .  A
C322        F327   1.358   1_655  S
C323        C324   1.412       .  A
C323        F329   1.358       .  S
C324        C325   1.415       .  A
C325        C326   1.394       .  A
C325        F328   1.358       .  S
C326        F330   1.358       .  S
C333        C334   1.406   1_455  A
C333        C338   1.400       .  A
C333        F351   1.358       .  S
C334        C831   1.486   1_554  S
C334        C335   1.406   1_655  A
C335        C336   1.399       .  A
C335        F832   1.358   1_455  S
C336        C337   1.410       .  A
C336        F352   1.358       .  S
C337        C338   1.410       .  A
C338        F341   1.358       .  S
C339        C826   1.478   1_655  S
C339        C342   1.400       .  A
C339        C346   1.402       .  A
F340        C827   1.358   1_655  S
C342        C343   1.398       .  A
C342        F839   1.358       .  S
C343        C344   1.415       .  A
C343        F349   1.358       .  S
C344        C345   1.414       .  A
C345        C346   1.401       .  A
C345        F348   1.358       .  S
C346        F350   1.358       .  S
F347        C834   1.358   1_554  S
C353        C354   1.402       .  A
C353        C358   1.394       .  A
C353        F371   1.358       .  S
C354        C359   1.475       .  S
C354        C355   1.403       .  A
C355        C356   1.396       .  A
C355        F360   1.358       .  S
C356        C357   1.412       .  A
C356        F372   1.358       .  S
C357        C358   1.412       .  A
C358        F361   1.358       .  S
C359        C362   1.405       .  A
C359        C366   1.404       .  A
C362        C363   1.398       .  A
C362        F367   1.358       .  S
C363        C364   1.407       .  A
C363        F369   1.358       .  S
C364        C365   1.408       .  A
C365        C366   1.392       .  A
C365        F368   1.359       .  S
C366        F370   1.358       .  S
C373        C374   1.403       .  A
C373        C378   1.399       .  A
C373        F391   1.358       .  S
C374        C379   1.483   1_565  S
C374        C375   1.405       .  A
C375        C376   1.400       .  A
C375        F380   1.358   1_565  S
C376        C377   1.410       .  A
C376        F392   1.358       .  S
C377        C378   1.414       .  A
C378        F381   1.358       .  S
C379        C382   1.404       .  A
C379        C386   1.404       .  A
C382        C383   1.398       .  A
C382        F387   1.358   1_545  S
C383        C384   1.412       .  A
C383        F389   1.358       .  S
C384        C385   1.414       .  A
C385        C386   1.401       .  A
C385        F388   1.358       .  S
C386        F390   1.358       .  S
C393        C394   1.402       .  A
C393        C398   1.398       .  A
C393        F903   1.358   1_554  S
C394        C891   1.476   1_564  S
C394        C395   1.403       .  A
C395        C396   1.398       .  A
C395        F400   1.358   1_565  S
C396        C397   1.411       .  A
C396        F412   1.358       .  S
C397        C398   1.411       .  A
C398        F401   1.358       .  S
C399        C886   1.479   1_545  S
C399        C402   1.401       .  A
C399        C406   1.404       .  A
C402        C403   1.396       .  A
C402        F407   1.358       .  S
C403        C404   1.414       .  A
C403        F409   1.358       .  S
C404        C405   1.413       .  A
C405        C406   1.401       .  A
C405        F408   1.358       .  S
C406        F410   1.358   1_545  S
F411        C885   1.358       .  S
C413        C414   1.398       .  A
C413        C418   1.395       .  A
C413        F923   1.358   1_554  S
C414        C911   1.468   1_554  S
C414        C415   1.402       .  A
C415        C416   1.398       .  A
C415        F420   1.358       .  S
C416        C417   1.410       .  A
C416        F432   1.358       .  S
C417        C418   1.413       .  A
C418        F421   1.358       .  S
C419        C906   1.472       .  S
C419        C422   1.401       .  A
C419        C426   1.398       .  A
C422        C423   1.400       .  A
C422        F427   1.358       .  S
C423        C424   1.413       .  A
C423        F429   1.357       .  S
C424        C425   1.417       .  A
C425        C426   1.397       .  A
C425        F428   1.358       .  S
C426        F430   1.358       .  S
F431        C905   1.358       .  S
C433        C434   1.401       .  A
C433        C438   1.400       .  A
C433        F451   1.358       .  S
C434        C439   1.482       .  S
C434        C435   1.404       .  A
C435        C436   1.404       .  A
C435        F440   1.358       .  S
C436        C437   1.414       .  A
C436        F452   1.358       .  S
C437        C438   1.413       .  A
C438        F441   1.357       .  S
C439        C442   1.403       .  A
C439        C446   1.402       .  A
C442        C443   1.403       .  A
C442        F447   1.358       .  S
C443        C444   1.413       .  A
C443        F449   1.358       .  S
C444        C445   1.412       .  A
C445        C446   1.401       .  A
C445        F448   1.358       .  S
C446        F450   1.358       .  S
C453        C454   1.404       .  A
C453        C458   1.395       .  A
C453        F471   1.358       .  S
C454        C459   1.483       .  S
C454        C455   1.406       .  A
C455        C456   1.402       .  A
C455        F460   1.358       .  S
C456        C457   1.412       .  A
C456        F472   1.358       .  S
C457        C458   1.410       .  A
C458        F461   1.358       .  S
C459        C462   1.405       .  A
C459        C466   1.405       .  A
C462        C463   1.399       .  A
C462        F467   1.358       .  S
C463        C464   1.411       .  A
C463        F469   1.358       .  S
C464        C465   1.411       .  A
C465        C466   1.398       .  A
C465        F468   1.358       .  S
C466        F470   1.358       .  S
C473        C474   1.405       .  A
C473        C478   1.396       .  A
C473        F491   1.358       .  S
C474        C479   1.479       .  S
C474        C475   1.406       .  A
C475        C476   1.399       .  A
C475        F480   1.358       .  S
C476        C477   1.405       .  A
C476        F492   1.358       .  S
C477        C478   1.405       .  A
C478        F481   1.358       .  S
C479        C482   1.404       .  A
C479        C486   1.406       .  A
C482        C483   1.396       .  A
C482        F487   1.358       .  S
C483        C484   1.409       .  A
C483        F489   1.358       .  S
C484        C485   1.408       .  A
C485        C486   1.400       .  A
C485        F488   1.358       .  S
C486        F490   1.358       .  S
Fe493       O509   2.082       .  S
Fe493       O499   2.062       .  S
Fe493       O506   2.067       .  S
Fe493       O498   2.080       .  S
Fe493       O504   1.976       .  S
Fe494       O497   2.066       .  S
Fe494       O501   2.063       .  S
Fe494       O505   2.063       .  S
Fe494       O510   2.057       .  S
Fe494       O504   1.977       .  S
Fe495       O513   2.055       .  S
Fe495       O500   2.071       .  S
Fe495       O507   2.063       .  S
Fe495       O496   2.051       .  S
Fe495       O504   1.975       .  S
O496        C503   1.266       .  A
O497        C511   1.270       .  A
O498        C503   1.271       .  A
O499        C502   1.270       .  A
O500        C512   1.269       .  A
O501        C514   1.267       .  A
C502        O507   1.269       .  A
C502        C909   1.489       .  S
C503        C889   1.491       .  S
O505        C508   1.270       .  A
O506        C508   1.271       .  A
C508        C869   1.489       .  S
O509        C514   1.271       .  A
O510        C512   1.267       .  A
C511        O513   1.267       .  A
C511        C969   1.475       .  S
C512        C949   1.482       .  S
C514        C929   1.493       .  S
Fe515       O531   2.063       .  S
Fe515       O521   2.067       .  S
Fe515       O528   2.066       .  S
Fe515       O520   2.065       .  S
Fe515       O526   1.976       .  S
Fe516       O519   2.060       .  S
Fe516       O523   2.046       .  S
Fe516       O527   2.060       .  S
Fe516       O532   2.052       .  S
Fe516       O526   1.973       .  S
Fe517       O535   2.070       .  S
Fe517       O522   2.066       .  S
Fe517       O529   2.059       .  S
Fe517       O518   2.067       .  S
Fe517       O526   1.973       .  S
O518        C525   1.270       .  A
O519        C533   1.269       .  A
O520        C525   1.270       .  A
O521        C524   1.269       .  A
O522        C534   1.268       .  A
O523        C536   1.264       .  A
C524        O529   1.268       .  A
C524        C769   1.487       .  S
C525        C829   1.492       .  S
O527        C530   1.270       .  A
O528        C530   1.271       .  A
C530        C809   1.488       .  S
O531        C536   1.268       .  A
O532        C534   1.265       .  A
C533        O535   1.271       .  A
C533        C956   1.486       .  S
C534        C849   1.481       .  S
C536        C796   1.473       .  S
Fe537       O553   2.061       .  S
Fe537       O543   2.077       .  S
Fe537       O550   2.083       .  S
Fe537       O542   2.064       .  S
Fe537       O548   1.976       .  S
Fe538       O541   2.055       .  S
Fe538       O545   2.053       .  S
Fe538       O549   2.056       .  S
Fe538       O554   2.056       .  S
Fe538       O548   1.974       .  S
Fe539       O557   2.065       .  S
Fe539       O544   2.063       .  S
Fe539       O551   2.058       .  S
Fe539       O540   2.063       .  S
Fe539       O548   1.972       .  S
O540        C547   1.269       .  A
O541        C555   1.267       .  A
O542        C547   1.270       .  A
O543        C546   1.271       .  A
O544        C556   1.268       .  A
O545        C558   1.267       .  A
C546        O551   1.268       .  A
C546        C736   1.494       .  S
C547        C716   1.481       .  S
O549        C552   1.267       .  A
O550        C552   1.272       .  A
C552        C689   1.489       .  S
O553        C558   1.269       .  A
O554        C556   1.267       .  A
C555        O557   1.269       .  A
C555        C976   1.480       .  S
C556        C856   1.478       .  S
C558        C756   1.484       .  S
Fe559       O575   2.088       .  S
Fe559       O565   2.068       .  S
Fe559       O572   2.065       .  S
Fe559       O564   2.086       .  S
Fe559       O570   1.969       .  S
Fe560       O563   2.058       .  S
Fe560       O567   2.068       .  S
Fe560       O571   2.051       .  S
Fe560       O576   2.066       .  S
Fe560       O570   1.965       .  S
Fe561       O579   2.060       .  S
Fe561       O566   2.060       .  S
Fe561       O573   2.051       .  S
Fe561       O562   2.055       .  S
Fe561       O570   1.965       .  S
O562        C569   1.269       .  A
O563        C577   1.267       .  A
O564        C569   1.274       .  A
O565        C568   1.270       .  A
O566        C578   1.268       .  A
O567        C580   1.271       .  A
C568        O573   1.266       .  A
C568        C916   1.487       .  S
C569        C836   1.495       .  S
O571        C574   1.266       .  A
O572        C574   1.269       .  A
C574        C816   1.480       .  S
O575        C580   1.275       .  A
O576        C578   1.269       .  A
C577        O579   1.268       .  A
C577        C649   1.476       .  S
C578        C669   1.480       .  S
C580        C936   1.487       .  S
Fe581       O597   2.065       .  S
Fe581       O587   2.085       .  S
Fe581       O594   2.085       .  S
Fe581       O586   2.059       .  S
Fe581       O592   1.971       .  S
Fe582       O585   2.057       .  S
Fe582       O589   2.057       .  S
Fe582       O593   2.053       .  S
Fe582       O598   2.066       .  S
Fe582       O592   1.968       .  S
Fe583       O601   2.072       .  S
Fe583       O588   2.054       .  S
Fe583       O595   2.049       .  S
Fe583       O584   2.067       .  S
Fe583       O592   1.972       .  S
O584        C591   1.269       .  A
O585        C599   1.267       .  A
O586        C591   1.268       .  A
O587        C590   1.274       .  A
O588        C600   1.267       .  A
O589        C602   1.266       .  A
C590        O595   1.267       .  A
C590        C876   1.491       .  S
C591        C709   1.488       .  S
O593        C596   1.268       .  A
O594        C596   1.274       .  A
C596        C696   1.481       .  S
O597        C602   1.269       .  A
O598        C600   1.269       .  A
C599        O601   1.270       .  A
C599        C629   1.481       .  S
C600        C676   1.480       .  S
C602        C896   1.490       .  S
Fe603       O619   2.064       .  S
Fe603       O609   2.076       .  S
Fe603       O616   2.076       .  S
Fe603       O608   2.060       .  S
Fe603       O614   1.980       .  S
Fe604       O607   2.059       .  S
Fe604       O611   2.051       .  S
Fe604       O615   2.050       .  S
Fe604       O620   2.057       .  S
Fe604       O614   1.975       .  S
Fe605       O623   2.055       .  S
Fe605       O610   2.062       .  S
Fe605       O617   2.059       .  S
Fe605       O606   2.051       .  S
Fe605       O614   1.974       .  S
O606        C613   1.267       .  A
O607        C621   1.268       .  A
O608        C613   1.268       .  A
O609        C612   1.271       .  A
O610        C622   1.267       .  A
O611        C624   1.266       .  A
C612        O617   1.268       .  A
C612        C729   1.494       .  S
C613        C789   1.482       .  S
O615        C618   1.267       .  A
O616        C618   1.271       .  A
C618        C776   1.490       .  S
O619        C624   1.268       .  A
O620        C622   1.266       .  A
C621        O623   1.268       .  A
C621        C656   1.477       .  S
C622        C636   1.483       .  S
C624        C749   1.484       .  S
C625        C626   1.404       .  A
C625        C630   1.396       .  A
C625        F643   1.358       .  S
C626        C631   1.479       .  S
C626        C627   1.404       .  A
C627        C628   1.400       .  A
C627        F632   1.358       .  S
C628        C629   1.410       .  A
C628        F644   1.358       .  S
C629        C630   1.408       .  A
C630        F633   1.358       .  S
C631        C634   1.404       .  A
C631        C638   1.404       .  A
C634        C635   1.399       .  A
C634        F639   1.358       .  S
C635        C636   1.410       .  A
C635        F641   1.358       .  S
C636        C637   1.411       .  A
C637        C638   1.397       .  A
C637        F640   1.358       .  S
C638        F642   1.358       .  S
C645        C646   1.402       .  A
C645        C650   1.398       .  A
C645        F663   1.357       .  S
C646        C651   1.470       .  S
C646        C647   1.401       .  A
C647        C648   1.394       .  A
C647        F652   1.359       .  S
C648        C649   1.410       .  A
C648        F664   1.358       .  S
C649        C650   1.408       .  A
C650        F653   1.358       .  S
C651        C654   1.401       .  A
C651        C658   1.402       .  A
C654        C655   1.397       .  A
C654        F659   1.358       .  S
C655        C656   1.410       .  A
C655        F661   1.358       .  S
C656        C657   1.409       .  A
C657        C658   1.395       .  A
C657        F660   1.358       .  S
C658        F662   1.358       .  S
C665        C666   1.405       .  A
C665        C670   1.400       .  A
C665        F683   1.358       .  S
C666        C671   1.479       .  S
C666        C667   1.404       .  A
C667        C668   1.394       .  A
C667        F672   1.359       .  S
C668        C669   1.410       .  A
C668        F684   1.358       .  S
C669        C670   1.408       .  A
C670        F673   1.358       .  S
C671        C674   1.404       .  A
C671        C678   1.405       .  A
C674        C675   1.397       .  A
C674        F679   1.358       .  S
C675        C676   1.409       .  A
C675        F681   1.358       .  S
C676        C677   1.409       .  A
C677        C678   1.397       .  A
C677        F680   1.358       .  S
C678        F682   1.358       .  S
C685        C686   1.404       .  A
C685        C690   1.401       .  A
C685        F703   1.358       .  S
C686        C687   1.403       .  A
C687        C688   1.400       .  A
C688        C689   1.412       .  A
C688        F704   1.358       .  S
C689        C690   1.411       .  A
C690        F693   1.358       .  S
C691        C694   1.402       .  A
C691        C698   1.404       .  A
C694        C695   1.399       .  A
C695        C696   1.410       .  A
C695        F701   1.358       .  S
C696        C697   1.407       .  A
C697        C698   1.401       .  A
C697        F700   1.358       .  S
C698        F702   1.358   1_655  S
C705        C706   1.405       .  A
C705        C710   1.398       .  A
C705        F723   1.358   1_655  S
C706        C711   1.484   1_655  S
C706        C707   1.405       .  A
C707        C708   1.398       .  A
C707        F712   1.358       .  S
C708        C709   1.411       .  A
C708        F724   1.358       .  S
C709        C710   1.412       .  A
C710        F713   1.358       .  S
C711        C714   1.407       .  A
C711        C718   1.406       .  A
C714        C715   1.398       .  A
C714        F719   1.358       .  S
C715        C716   1.408       .  A
C715        F721   1.358       .  S
C716        C717   1.409       .  A
C717        C718   1.398       .  A
C717        F720   1.358       .  S
C718        F722   1.358       .  S
C725        C726   1.402       .  A
C725        C730   1.399       .  A
C725        F743   1.358       .  S
C726        C731   1.482       .  S
C726        C727   1.404       .  A
C727        C728   1.401       .  A
C727        F732   1.358       .  S
C728        C729   1.412       .  A
C728        F744   1.357       .  S
C729        C730   1.415       .  A
C730        F733   1.358       .  S
C731        C734   1.403       .  A
C731        C738   1.402       .  A
C734        C735   1.400       .  A
C734        F739   1.358       .  S
C735        C736   1.413       .  A
C735        F741   1.358       .  S
C736        C737   1.415       .  A
C737        C738   1.400       .  A
C737        F740   1.358       .  S
C738        F742   1.358       .  S
C745        C746   1.404       .  A
C745        C750   1.395       .  A
C745        F763   1.358   1_556  S
C746        C747   1.406       .  A
C747        C748   1.398       .  A
C748        C749   1.411       .  A
C748        F764   1.358       .  S
C749        C750   1.411       .  A
C750        F753   1.358       .  S
C751        C754   1.398       .  A
C751        C758   1.401       .  A
C754        C755   1.394       .  A
C755        C756   1.414       .  A
C755        F761   1.358       .  S
C756        C757   1.412       .  A
C757        C758   1.397       .  A
C757        F760   1.358       .  S
C758        F762   1.358       .  S
C765        C766   1.402       .  A
C765        C770   1.398       .  A
C766        C767   1.402       .  A
C767        C768   1.399       .  A
C767        F772   1.358       .  S
C768        C769   1.412       .  A
C768        F784   1.358       .  S
C769        C770   1.412       .  A
C770        F773   1.358       .  S
C771        C774   1.404   1_545  A
C771        C778   1.400       .  A
C774        C775   1.401   1_565  A
C774        F779   1.358       .  S
C775        C776   1.412       .  A
C775        F781   1.358       .  S
C776        C777   1.415       .  A
C777        C778   1.395       .  A
C777        F780   1.358       .  S
C778        F782   1.358   1_556  S
C785        C786   1.402       .  A
C785        C790   1.395       .  A
C785        F803   1.358   1_545  S
C786        C791   1.472   1_545  S
C786        C787   1.401       .  A
C787        C788   1.395       .  A
C787        F792   1.358       .  S
C788        C789   1.413       .  A
C788        F804   1.358       .  S
C789        C790   1.411       .  A
C790        F793   1.358       .  S
C791        C794   1.404       .  A
C791        C798   1.402       .  A
C794        C795   1.396       .  A
C794        F799   1.358       .  S
C795        C796   1.406       .  A
C795        F801   1.358       .  S
C796        C797   1.409       .  A
C797        C798   1.395       .  A
C797        F800   1.358       .  S
C798        F802   1.358       .  S
C805        C806   1.400       .  A
C805        C810   1.396       .  A
C805        F823   1.358       .  S
C806        C811   1.472   1_455  S
C806        C807   1.401       .  A
C807        C808   1.398       .  A
C807        F812   1.358   1_455  S
C808        C809   1.414       .  A
C808        F824   1.358       .  S
C809        C810   1.413       .  A
C810        F813   1.357       .  S
C811        C814   1.404       .  A
C811        C818   1.400       .  A
C814        C815   1.399       .  A
C814        F819   1.358   1_655  S
C815        C816   1.410       .  A
C815        F821   1.358       .  S
C816        C817   1.411       .  A
C817        C818   1.393       .  A
C817        F820   1.358       .  S
C818        F822   1.358       .  S
C825        C826   1.401       .  A
C825        C830   1.398       .  A
C825        F843   1.358       .  S
C826        C827   1.402       .  A
C827        C828   1.400       .  A
C828        C829   1.415       .  A
C828        F844   1.358       .  S
C829        C830   1.414       .  A
C830        F833   1.358       .  S
C831        C834   1.403       .  A
C831        C838   1.406       .  A
C834        C835   1.399       .  A
C835        C836   1.415       .  A
C835        F841   1.358       .  S
C836        C837   1.413       .  A
C837        C838   1.400       .  A
C837        F840   1.358       .  S
C838        F842   1.358       .  S
C845        C846   1.401       .  A
C845        C850   1.395       .  A
C845        F863   1.358       .  S
C846        C851   1.474       .  S
C846        C847   1.404       .  A
C847        C848   1.400       .  A
C847        F852   1.358       .  S
C848        C849   1.408       .  A
C848        F864   1.358       .  S
C849        C850   1.412       .  A
C850        F853   1.358       .  S
C851        C854   1.404       .  A
C851        C858   1.402       .  A
C854        C855   1.400       .  A
C854        F859   1.358       .  S
C855        C856   1.409       .  A
C855        F861   1.358       .  S
C856        C857   1.410       .  A
C857        C858   1.394       .  A
C857        F860   1.358       .  S
C858        F862   1.358       .  S
C865        C866   1.402       .  A
C865        C870   1.398       .  A
C865        F883   1.358       .  S
C866        C871   1.479   1_565  S
C866        C867   1.403       .  A
C867        C868   1.399       .  A
C867        F872   1.358   1_565  S
C868        C869   1.412       .  A
C868        F884   1.358       .  S
C869        C870   1.414       .  A
C870        F873   1.358       .  S
C871        C874   1.404       .  A
C871        C878   1.401       .  A
C874        C875   1.400       .  A
C874        F879   1.358   1_545  S
C875        C876   1.412       .  A
C875        F881   1.358       .  S
C876        C877   1.415       .  A
C877        C878   1.397       .  A
C877        F880   1.358       .  S
C878        F882   1.358       .  S
C885        C886   1.402       .  A
C885        C890   1.397       .  A
C886        C887   1.403       .  A
C887        C888   1.401       .  A
C887        F892   1.358       .  S
C888        C889   1.413       .  A
C888        F904   1.358       .  S
C889        C890   1.414       .  A
C890        F893   1.358       .  S
C891        C894   1.400       .  A
C891        C898   1.402       .  A
C894        C895   1.397       .  A
C894        F899   1.358   1_556  S
C895        C896   1.415       .  A
C895        F901   1.358       .  S
C896        C897   1.412       .  A
C897        C898   1.399       .  A
C897        F900   1.358       .  S
C898        F902   1.358   1_545  S
C905        C906   1.399       .  A
C905        C910   1.397       .  A
C906        C907   1.401       .  A
C907        C908   1.399       .  A
C907        F912   1.358       .  S
C908        C909   1.413       .  A
C908        F924   1.358       .  S
C909        C910   1.415       .  A
C910        F913   1.358       .  S
C911        C914   1.401       .  A
C911        C918   1.398       .  A
C914        C915   1.398       .  A
C914        F919   1.358       .  S
C915        C916   1.412       .  A
C915        F921   1.357       .  S
C916        C917   1.416       .  A
C917        C918   1.395       .  A
C917        F920   1.358       .  S
C918        F922   1.358   1_556  S
C925        C926   1.406       .  A
C925        C930   1.402       .  A
C925        F943   1.358       .  S
C926        C931   1.492       .  S
C926        C927   1.408       .  A
C927        C928   1.404       .  A
C927        F932   1.358       .  S
C928        C929   1.410       .  A
C928        F944   1.358       .  S
C929        C930   1.412       .  A
C930        F933   1.358       .  S
C931        C934   1.408       .  A
C931        C938   1.407       .  A
C934        C935   1.404       .  A
C934        F939   1.358       .  S
C935        C936   1.409       .  A
C935        F941   1.358       .  S
C936        C937   1.408       .  A
C937        C938   1.402       .  A
C937        F940   1.358       .  S
C938        F942   1.358       .  S
C945        C946   1.405       .  A
C945        C950   1.396       .  A
C945        F963   1.358       .  S
C946        C951   1.483       .  S
C946        C947   1.407       .  A
C947        C948   1.401       .  A
C947        F952   1.358       .  S
C948        C949   1.409       .  A
C948        F964   1.358       .  S
C949        C950   1.409       .  A
C950        F953   1.358       .  S
C951        C954   1.405       .  A
C951        C958   1.405       .  A
C954        C955   1.400       .  A
C954        F959   1.358       .  S
C955        C956   1.411       .  A
C955        F961   1.358       .  S
C956        C957   1.410       .  A
C957        C958   1.397       .  A
C957        F960   1.358       .  S
C958        F962   1.358       .  S
C965        C966   1.405       .  A
C965        C970   1.395       .  A
C965        F983   1.358       .  S
C966        C971   1.477       .  S
C966        C967   1.404       .  A
C967        C968   1.399       .  A
C967        F972   1.358       .  S
C968        C969   1.409       .  A
C968        F984   1.358       .  S
C969        C970   1.406       .  A
C970        F973   1.358       .  S
C971        C974   1.404       .  A
C971        C978   1.404       .  A
C974        C975   1.397       .  A
C974        F979   1.358       .  S
C975        C976   1.410       .  A
C975        F981   1.358       .  S
C976        C977   1.408       .  A
C977        C978   1.397       .  A
C977        F980   1.358       .  S
C978        F982   1.358       .  S
