geometry optimzed in LAMMPS
_audit_creation_date              2020-12-01 
_audit_creation_method            'lammps2cif' 
_symmetry_space_group_name_H-M    'P1' 
_symmetry_Int_Tables_number       1 
_symmetry_cell_setting            triclinic 
loop_ 
_symmetry_equiv_pos_as_xyz 
  x,y,z 
_cell_length_a                    32.63995254 
_cell_length_b                    28.842704098455293 
_cell_length_c                    30.147986193362964 
_cell_angle_alpha                 98.54695246984382 
_cell_angle_beta                  80.11861129497112 
_cell_angle_gamma                 86.02701426374665 
loop_ 
_atom_site_label 
_atom_site_type_symbol 
_atom_site_fract_x 
_atom_site_fract_y 
_atom_site_fract_z 
_atom_site_charge 
C1          C  0.38266137  0.12189017  0.40816095     0.02800
C2          C  0.34493845  0.10205086  0.40542678    -0.13300
C3          C  0.33678065  0.07922743  0.36355025     0.00300
C4          C  0.36763862  0.07643029  0.32342284    -0.11900
C5          C  0.40618485  0.09519652  0.32598407     0.02800
C6          C  0.41303311  0.11752945  0.36852229    -0.11300
H7          H  0.32137617  0.10531935  0.43604893     0.08400
H8          H  0.36207571  0.05921827  0.29084427     0.05900
H9          H  0.44189917  0.13358427  0.37038278     0.05800
C10         C  0.34451773  0.41139777  0.15140907     0.02800
C11         C  0.37564195  0.41597639  0.17946307    -0.13300
C12         C  0.40598086  0.37733963  0.17870724     0.00300
C13         C  0.40556676  0.33550126  0.14806155    -0.11900
C14         C  0.37696235  0.33088337  0.11863001     0.02800
C15         C  0.34583708  0.36820203  0.12157803    -0.11300
H16         H  0.37583399  0.44887592  0.20200092     0.08400
H17         H  0.42778503  0.30566555  0.14677154     0.05900
H18         H  0.32340486  0.36439683  0.09905584     0.05800
C19         C  0.08799344  0.38070535  0.33353007     0.02800
C20         C  0.08415669  0.34865020  0.36494962    -0.13300
C21         C  0.10556419  0.35287640  0.40206210     0.00300
C22         C  0.13292573  0.38923042  0.40602431    -0.11900
C23         C  0.13944233  0.42009945  0.37330153     0.02800
C24         C  0.11587912  0.41576769  0.33789265    -0.11300
H25         H  0.06291152  0.32174155  0.36167831     0.08400
H26         H  0.15092003  0.39168790  0.43312933     0.05900
H27         H  0.11937951  0.43979647  0.31335328     0.05800
C28         C  0.10266273  0.14970357  0.14992084     0.02800
C29         C  0.10521387  0.18112998  0.11867958    -0.13300
C30         C  0.13877570  0.17634760  0.08134088     0.00300
C31         C  0.17117467  0.13916863  0.07596803    -0.11900
C32         C  0.16951788  0.10716882  0.10760312     0.02800
C33         C  0.13509097  0.11329518  0.14395867    -0.11300
H34         H  0.08025836  0.20875762  0.12277483     0.08400
H35         H  0.19708390  0.13509641  0.04750323     0.05900
H36         H  0.13329091  0.08888113  0.16776504     0.05800
O37         O  0.03668839  0.05476345  0.21554409    -0.74700
O38         O  0.00733711  0.17008603  0.29998422    -0.74800
O39         O  0.47767602  0.08691590  0.29250279    -0.74800
O40         O  0.06892895  0.13600858  0.22299498    -0.74900
O41         O  0.02771182  0.15769156  0.17650569    -0.74800
O42         O  0.43353950  0.11239593  0.25056952    -0.74800
O43         O  0.46721493  0.19361324  0.25327075    -0.74800
O44         O  0.49266747  0.07733264  0.17213820    -0.74800
Ni45       Ni  0.02420276  0.11115556  0.25925021     1.25400
Ni46       Ni  0.47874576  0.13626376  0.21152719     1.25400
C47         C  0.52139701  0.04842037  0.17888201     0.87400
C48         C  0.47919979  0.19925229  0.29181550     0.87400
C49         C  0.44031516  0.09574379  0.28628853     0.87400
C50         C  0.06449572  0.14979050  0.18550347     0.87600
O51         O  0.14328564  0.19260221  0.00435943    -0.74700
O52         O  0.11129606  0.27350665  0.42072078    -0.74800
O53         O  0.18001298  0.25266293  0.45277118    -0.74800
O54         O  0.07300501  0.21039594  0.47504004    -0.74900
O55         O  0.05321624  0.27078106  0.03115498    -0.74800
O56         O  0.16067327  0.31194665  0.01092708    -0.74800
O57         O  0.09344156  0.33329344  0.47835592    -0.74800
O58         O  0.12218627  0.25210358  0.06193469    -0.74800
Ni59       Ni  0.12721130  0.23039311  0.46066342     1.25400
Ni60       Ni  0.10624875  0.29437760  0.02239078     1.25400
C61         C  0.13618564  0.20875745  0.04733629     0.87400
C62         C  0.10206743  0.31803086  0.43521600     0.87400
C63         C  0.18812574  0.28844345  0.47897446     0.87400
C64         C  0.05056100  0.22820811  0.51369296     0.87600
O65         O  0.32129438  0.49161715  0.14218789    -0.74700
O66         O  0.24187495  0.07699245  0.10199271    -0.74800
O67         O  0.26068478  0.06830300  0.18256463    -0.74800
O68         O  0.29903068  0.00115969  0.06087599    -0.74900
O69         O  0.24874288  0.45373118  0.07319651    -0.74800
O70         O  0.21542494  0.51532375  0.19414486    -0.74800
O71         O  0.19287212  0.02865345  0.11681081    -0.74800
O72         O  0.27340496  0.44077109  0.15035232    -0.74800
Ni73       Ni  0.28291812  0.03606521  0.12163162     1.25400
Ni74       Ni  0.23118823  0.48279715  0.13408116     1.25400
C75         C  0.31140268  0.45052838  0.14952716     0.87400
C76         C  0.20336684  0.06855647  0.10671624     0.87400
C77         C  0.22754282  0.55567598  0.20539531     0.87400
C78         C  0.27910659  0.46665914  0.04698081     0.87600
O79         O  0.46525732  0.34179816  0.20426753    -0.74700
O80         O  0.05577699  0.34260725  0.27276806    -0.74800
O81         O  0.97672581  0.32406456  0.28669483    -0.74800
O82         O  0.04609260  0.35704264  0.18619699    -0.74900
O83         O  0.52466657  0.43260105  0.21424008    -0.74800
O84         O  0.45586382  0.39850369  0.31891255    -0.74800
O85         O  0.03608675  0.41849054  0.29996595    -0.74800
O86         O  0.44369758  0.41637414  0.23449885    -0.74800
Ni87       Ni  0.01179146  0.33887681  0.23651773     1.25400
Ni88       Ni  0.48961855  0.41942820  0.26792305     1.25400
C89         C  0.43965658  0.37883524  0.20756514     0.87400
C90         C  0.05930006  0.38063649  0.29965486     0.87400
C91         C  0.45576678  0.35417116  0.31931065     0.87400
C92         C  0.54405061  0.40014869  0.18189064     0.87600
O93         O  0.17814034  0.48146621  0.40855046    -0.74700
O94         O  0.26899553  0.06250869  0.40004432    -0.74800
O95         O  0.18770986  0.07244468  0.39175002    -0.74800
O96         O  0.25964781  0.97797531  0.41826332    -0.74900
O97         O  0.27891785  0.44181531  0.34609163    -0.74800
O98         O  0.21186390  0.54274038  0.31855116    -0.74800
O99         O  0.29223459  0.02821050  0.32800859    -0.74800
O100        O  0.19792130  0.45399070  0.33437771    -0.74800
Ni101      Ni  0.22254816  0.02449537  0.40726284     1.25400
Ni102      Ni  0.24554774  0.49073814  0.32892399     1.25400
C103        C  0.17331223  0.45366302  0.37244536     0.87400
C104        C  0.29711132  0.05620005  0.36349022     0.87400
C105        C  0.19058121  0.57496990  0.34971634     0.87400
C106        C  0.28123985  0.44553615  0.38821913     0.87600
O107        O  0.41546059  0.18254000  0.44794543    -0.74700
O108        O  0.41281684  0.28186344  0.04946560    -0.74800
O109        O  0.44775496  0.19149170  0.52393434    -0.74800
O110        O  0.38239736  0.27131883  0.47235743    -0.74900
O111        O  0.32712649  0.24005040  0.00726467    -0.74800
O112        O  0.39393795  0.16744883  0.06772093    -0.74800
O113        O  0.35494121  0.25750615  0.08596433    -0.74800
O114        O  0.36271244  0.15272033  0.48814287    -0.74800
Ni115      Ni  0.41693369  0.23239674  0.49733112     1.25400
Ni116      Ni  0.35768711  0.20323989  0.03882167     1.25400
C117        C  0.38787755  0.15294999  0.45046642     0.87400
C118        C  0.38174468  0.28794377  0.08304920     0.87400
C119        C  0.43318591  0.16782269  0.05462072     0.87400
C120        C  0.34357696  0.26767960  0.98121261     0.87600
C121        C  0.30447510  0.41078590  0.40681557    -0.06400
C122        C  0.27393162  0.89139515  0.43467636    -0.17600
C123        C  0.26104018  0.91578787  0.97922680     0.10800
C124        C  0.29030186  0.44124279  0.00007873    -0.06400
C125        C  0.33002149  0.44365269  0.97426853    -0.17600
C126        C  0.33724443  0.42900017  0.42683059     0.10800
S127        S  0.20530059  0.92391516  0.00080240    -0.32600
S128        S  0.38021943  0.44989853  0.39197620    -0.32600
H129        H  0.40359944  0.46013014  0.42671894     0.28800
H130        H  0.20420271  0.97287274  0.01461864     0.28800
H131        H  0.25028212  0.87447168  0.41864715     0.19400
H132        H  0.35309640  0.46194153  0.98994983     0.19400
C133        C  0.20159681  0.58802803  0.24419923    -0.06400
C134        C  0.22007126  0.12437066  0.26788714    -0.17600
C135        C  0.20273857  0.14109049  0.31398858     0.10800
C136        C  0.17145197  0.61613486  0.33482561    -0.06400
C137        C  0.14284966  0.60128445  0.30777977    -0.17600
C138        C  0.15959050  0.58015864  0.26269985     0.10800
S139        S  0.23036847  0.17844740  0.34922156    -0.32600
S140        S  0.13059635  0.53681543  0.23537735    -0.32600
H141        H  0.09438989  0.54327491  0.26934330     0.28800
H142        H  0.25678422  0.19297780  0.31290120     0.28800
H143        H  0.25005724  0.13458343  0.25313913     0.19400
H144        H  0.11326596  0.59189857  0.32458682     0.19400
C145        C  0.02703543  0.19679495  0.54138589    -0.06400
C146        C  0.02749476  0.14850185  0.02303837    -0.17600
C147        C  0.49755148  0.12154950  0.04380382     0.10800
C148        C  0.46453351  0.14625874  0.07682311    -0.06400
C149        C  0.47679840  0.18259727  0.60647944    -0.17600
C150        C  0.00535815  0.21175601  0.58718964     0.10800
S151        S  0.49158352  0.06300046  0.01716952    -0.32600
S152        S  0.01049356  0.26700777  0.62119169    -0.32600
H153        H  0.99193769  0.29365830  0.59310643     0.28800
H154        H  0.53100819  0.05605845  0.98834411     0.28800
H155        H  0.04794288  0.13333504  0.99124700     0.19400
H156        H  0.45676947  0.19580827  0.63912260     0.19400
C157        C  0.31544336  0.29787467  0.96537047    -0.06400
C158        C  0.29000316  0.32594489  0.00291191    -0.17600
C159        C  0.24749546  0.32192184  0.01011307     0.10800
C160        C  0.23041047  0.30075348  0.47301152    -0.06400
C161        C  0.25613487  0.28373047  0.43063209    -0.17600
C162        C  0.29892172  0.27887745  0.42738671     0.10800
S163        S  0.21793354  0.33790464  0.06774343    -0.32600
S164        S  0.32818754  0.23693063  0.38034991    -0.32600
H165        H  0.36696467  0.23801631  0.39427701     0.28800
H166        H  0.24914687  0.35954671  0.08765104     0.28800
H167        H  0.30397931  0.34079423  0.03120962     0.19400
H168        H  0.24299488  0.26816800  0.40194589     0.19400
C169        C  0.55917127  0.41311240  0.13735154    -0.06400
C170        C  0.52527921  0.42751058  0.11789586    -0.17600
C171        C  0.51203552  0.97570505  0.12566823     0.10800
C172        C  0.53824001  0.00694246  0.14467959    -0.06400
C173        C  0.08038182  0.99074861  0.14228767    -0.17600
C174        C  0.09140256  0.44235704  0.13755784     0.10800
S175        S  0.45956324  0.99361612  0.11992424    -0.32600
S176        S  0.14096487  0.41957380  0.14792562    -0.32600
H177        H  0.15883843  0.46240060  0.15013916     0.28800
H178        H  0.44583833  0.00744824  0.16722566     0.28800
H179        H  0.50279043  0.40276945  0.11073208     0.19400
H180        H  0.10224781  0.01526424  0.15144456     0.19400
C181        C  0.45772420  0.23944426  0.32646044    -0.06400
C182        C  0.41827791  0.25807250  0.32046755    -0.17600
C183        C  0.40365742  0.30507020  0.33829885     0.10800
C184        C  0.43203002  0.33373351  0.35619911    -0.06400
C185        C  0.95964162  0.31107139  0.37923753    -0.17600
C186        C  0.97573810  0.26403365  0.36136363     0.10800
S187        S  0.35949391  0.32974808  0.31806181    -0.32600
S188        S  0.02048365  0.23967306  0.38053723    -0.32600
H189        H  0.04622997  0.23439491  0.33723729     0.28800
H190        H  0.37002317  0.37628913  0.32372782     0.28800
H191        H  0.40107389  0.23804697  0.29780733     0.19400
H192        H  0.97661339  0.33225048  0.40126385     0.19400
C193        C  0.38266177  0.12189004  0.90816094     0.02800
C194        C  0.34493885  0.10205074  0.90542671    -0.13300
C195        C  0.33678107  0.07922737  0.86355020     0.00300
C196        C  0.36763903  0.07643025  0.82342274    -0.11900
C197        C  0.40618532  0.09519636  0.82598409     0.02800
C198        C  0.41303355  0.11752921  0.86852231    -0.11300
H199        H  0.32137652  0.10531923  0.93604886     0.08400
H200        H  0.36207614  0.05921839  0.79084421     0.05900
H201        H  0.44189969  0.13358394  0.87038286     0.05800
C202        C  0.34451774  0.41139759  0.65140932     0.02800
C203        C  0.37564196  0.41597627  0.67946334    -0.13300
C204        C  0.40598103  0.37733955  0.67870732     0.00300
C205        C  0.40556693  0.33550125  0.64806162    -0.11900
C206        C  0.37696245  0.33088323  0.61863019     0.02800
C207        C  0.34583717  0.36820190  0.62157822    -0.11300
H208        H  0.37583388  0.44887568  0.70200129     0.08400
H209        H  0.42778538  0.30566550  0.64677152     0.05900
H210        H  0.32340496  0.36439671  0.59905600     0.05800
C211        C  0.08799362  0.38070559  0.83353013     0.02800
C212        C  0.08415695  0.34865043  0.86494965    -0.13300
C213        C  0.10556447  0.35287658  0.90206208     0.00300
C214        C  0.13292601  0.38923065  0.90602432    -0.11900
C215        C  0.13944264  0.42009964  0.87330150     0.02800
C216        C  0.11587940  0.41576786  0.83789264    -0.11300
H217        H  0.06291174  0.32174171  0.86167836     0.08400
H218        H  0.15092024  0.39168818  0.93312938     0.05900
H219        H  0.11937985  0.43979658  0.81335319     0.05800
C220        C  0.10266318  0.14970330  0.64992085     0.02800
C221        C  0.10521420  0.18112970  0.61867953    -0.13300
C222        C  0.13877596  0.17634724  0.58134071     0.00300
C223        C  0.17117480  0.13916811  0.57596767    -0.11900
C224        C  0.16951812  0.10716837  0.60760285     0.02800
C225        C  0.13509139  0.11329491  0.64395860    -0.11300
H226        H  0.08025875  0.20875722  0.62277481     0.08400
H227        H  0.19708390  0.13509571  0.54750269     0.05900
H228        H  0.13329144  0.08888086  0.66776506     0.05800
O229        O  0.03668883  0.05476309  0.71554407    -0.74700
O230        O  0.00733761  0.17008570  0.79998421    -0.74800
O231        O  0.47767651  0.08691556  0.79250279    -0.74800
O232        O  0.06892940  0.13600821  0.72299493    -0.74900
O233        O  0.02771228  0.15769139  0.67650570    -0.74800
O234        O  0.43354000  0.11239573  0.75056956    -0.74800
O235        O  0.46721543  0.19361299  0.75327079    -0.74800
O236        O  0.49266795  0.07733245  0.67213822    -0.74800
Ni237      Ni  0.02420323  0.11115520  0.75925019     1.25400
Ni238      Ni  0.47874623  0.13626354  0.71152723     1.25400
C239        C  0.52139742  0.04842009  0.67888200     0.87400
C240        C  0.47920030  0.19925199  0.79181553     0.87400
C241        C  0.44031564  0.09574355  0.78628855     0.87400
C242        C  0.06449617  0.14979024  0.68550346     0.87600
O243        O  0.14328585  0.19260196  0.50435929    -0.74700
O244        O  0.11129600  0.27350687  0.92072086    -0.74800
O245        O  0.18001293  0.25266301  0.95277130    -0.74800
O246        O  0.07300485  0.21039636  0.97504009    -0.74900
O247        O  0.05321626  0.27078059  0.53115497    -0.74800
O248        O  0.16067313  0.31194647  0.51092701    -0.74800
O249        O  0.09344189  0.33329376  0.97835594    -0.74800
O250        O  0.12218633  0.25210325  0.56193455    -0.74800
Ni251      Ni  0.12721119  0.23039336  0.96066352     1.25400
Ni252      Ni  0.10624867  0.29437727  0.52239069     1.25400
C253        C  0.13618580  0.20875715  0.54733616     0.87400
C254        C  0.10206763  0.31803112  0.93521604     0.87400
C255        C  0.18812578  0.28844354  0.97897450     0.87400
C256        C  0.05056089  0.22820858  0.01369303     0.87600
O257        O  0.32129445  0.49161690  0.64218798    -0.74700
O258        O  0.24187521  0.07699200  0.60199237    -0.74800
O259        O  0.26068502  0.06830260  0.68256425    -0.74800
O260        O  0.29903093  0.00115914  0.56087568    -0.74900
O261        O  0.24874271  0.45373084  0.57319672    -0.74800
O262        O  0.21542500  0.51532373  0.69414499    -0.74800
O263        O  0.19287238  0.02865301  0.61681048    -0.74800
O264        O  0.27340495  0.44077095  0.65035259    -0.74800
Ni265      Ni  0.28291838  0.03606475  0.62163128     1.25400
Ni266      Ni  0.23118822  0.48279697  0.63408134     1.25400
C267        C  0.31140272  0.45052821  0.64952739     0.87400
C268        C  0.20336709  0.06855601  0.60671590     0.87400
C269        C  0.22754291  0.55567594  0.70539531     0.87400
C270        C  0.27910645  0.46665867  0.54698092     0.87600
O271        O  0.46525757  0.34179814  0.70426747    -0.74700
O272        O  0.05577726  0.34260737  0.77276811    -0.74800
O273        O  0.97672615  0.32406441  0.78669486    -0.74800
O274        O  0.04609289  0.35704277  0.68619712    -0.74900
O275        O  0.52466664  0.43260112  0.71424027    -0.74800
O276        O  0.45586404  0.39850348  0.81891271    -0.74800
O277        O  0.03608681  0.41849062  0.79996605    -0.74800
O278        O  0.44369763  0.41637401  0.73449909    -0.74800
Ni279      Ni  0.01179177  0.33887682  0.73651776     1.25400
Ni280      Ni  0.48961866  0.41942815  0.76792321     1.25400
C281        C  0.43965673  0.37883521  0.70756523     0.87400
C282        C  0.05930023  0.38063665  0.79965492     0.87400
C283        C  0.45576700  0.35417092  0.81931070     0.87400
C284        C  0.54405077  0.40014882  0.68189083     0.87600
O285        O  0.17814057  0.48146648  0.90855048    -0.74700
O286        O  0.26899583  0.06250892  0.90004420    -0.74800
O287        O  0.18771013  0.07244505  0.89174975    -0.74800
O288        O  0.25964792  0.97797561  0.91826328    -0.74900
O289        O  0.27891831  0.44181568  0.84609161    -0.74800
O290        O  0.21186414  0.54274063  0.81855118    -0.74800
O291        O  0.29223492  0.02821053  0.82800855    -0.74800
O292        O  0.19792164  0.45399096  0.83437775    -0.74800
Ni293      Ni  0.22254834  0.02449573  0.90726271     1.25400
Ni294      Ni  0.24554806  0.49073843  0.82892400     1.25400
C295        C  0.17331251  0.45366327  0.87244536     0.87400
C296        C  0.29711168  0.05620011  0.86349013     0.87400
C297        C  0.19058142  0.57497014  0.84971635     0.87400
C298        C  0.28124021  0.44553643  0.88821914     0.87600
O299        O  0.41546089  0.18253994  0.94794538    -0.74700
O300        O  0.41281685  0.28186335  0.54946570    -0.74800
O301        O  0.44775507  0.19149178  0.02393437    -0.74800
O302        O  0.38239740  0.27131868  0.97235726    -0.74900
O303        O  0.32712648  0.24005059  0.50726494    -0.74800
O304        O  0.39393790  0.16744861  0.56772092    -0.74800
O305        O  0.35494129  0.25750600  0.58596455    -0.74800
O306        O  0.36271276  0.15272024  0.98814282    -0.74800
Ni307      Ni  0.41693380  0.23239675  0.99733106     1.25400
Ni308      Ni  0.35768703  0.20323986  0.53882181     1.25400
C309        C  0.38787792  0.15294989  0.95046638     0.87400
C310        C  0.38174475  0.28794363  0.58304938     0.87400
C311        C  0.43318585  0.16782252  0.55462065     0.87400
C312        C  0.34357692  0.26767983  0.48121292     0.87600
C313        C  0.30447565  0.41078626  0.90681552    -0.06400
C314        C  0.27393153  0.89139558  0.93467662    -0.17600
C315        C  0.26104026  0.91578736  0.47922657     0.10800
C316        C  0.29030150  0.44124227  0.50007883    -0.06400
C317        C  0.33002119  0.44365194  0.47426861    -0.17600
C318        C  0.33724490  0.42900077  0.92683056     0.10800
S319        S  0.20530063  0.92391465  0.50080209    -0.32600
S320        S  0.38021989  0.44989904  0.89197613    -0.32600
H321        H  0.40359972  0.46013104  0.92671899     0.28800
H322        H  0.20420278  0.97287222  0.51461833     0.28800
H323        H  0.25028196  0.87447215  0.91864745     0.19400
H324        H  0.35309613  0.46194051  0.48994986     0.19400
C325        C  0.20159702  0.58802812  0.74419924    -0.06400
C326        C  0.22007152  0.12437061  0.76788654    -0.17600
C327        C  0.20273898  0.14109055  0.81398801     0.10800
C328        C  0.17145225  0.61613516  0.83482562    -0.06400
C329        C  0.14284988  0.60128485  0.80777983    -0.17600
C330        C  0.15959067  0.58015886  0.76269994     0.10800
S331        S  0.23036905  0.17844743  0.84922083    -0.32600
S332        S  0.13059649  0.53681567  0.73537750    -0.32600
H333        H  0.09439002  0.54327527  0.76934343     0.28800
H334        H  0.25678476  0.19297773  0.81290037     0.28800
H335        H  0.25005745  0.13458337  0.75313838     0.19400
H336        H  0.11326610  0.59189912  0.82458690     0.19400
C337        C  0.02703536  0.19679545  0.04138605    -0.06400
C338        C  0.02749469  0.14850144  0.52303793    -0.17600
C339        C  0.49755132  0.12154917  0.54380333     0.10800
C340        C  0.46453353  0.14625835  0.57682278    -0.06400
C341        C  0.47679823  0.18259793  0.10647960    -0.17600
C342        C  0.00535789  0.21175670  0.08718973     0.10800
S343        S  0.49158293  0.06300041  0.51716876    -0.32600
S344        S  0.01049309  0.26700861  0.12119162    -0.32600
H345        H  0.99193740  0.29365900  0.09310611     0.28800
H346        H  0.53100751  0.05605827  0.48834318     0.28800
H347        H  0.04794269  0.13333476  0.49124656     0.19400
H348        H  0.45676922  0.19580904  0.13912278     0.19400
C349        C  0.31544326  0.29787489  0.46537086    -0.06400
C350        C  0.29000298  0.32594505  0.50291226    -0.17600
C351        C  0.24749526  0.32192198  0.51011325     0.10800
C352        C  0.23041055  0.30075343  0.97301140    -0.06400
C353        C  0.25613485  0.28373033  0.93063192    -0.17600
C354        C  0.29892172  0.27887721  0.92738638     0.10800
S355        S  0.21793315  0.33790484  0.56774349    -0.32600
S356        S  0.32818730  0.23693009  0.88034963    -0.32600
H357        H  0.36696448  0.23801566  0.89427661     0.28800
H358        H  0.24914652  0.35954650  0.58765137     0.28800
H359        H  0.30397909  0.34079441  0.53121000     0.19400
H360        H  0.24299478  0.26816784  0.90194579     0.19400
C361        C  0.55917146  0.41311257  0.63735179    -0.06400
C362        C  0.52527940  0.42751075  0.61789614    -0.17600
C363        C  0.51203554  0.97570486  0.62566831     0.10800
C364        C  0.53824022  0.00694215  0.64467954    -0.06400
C365        C  0.08038206  0.99074817  0.64228740    -0.17600
C366        C  0.09140287  0.44235721  0.63755819     0.10800
S367        S  0.45956308  0.99361605  0.61992494    -0.32600
S368        S  0.14096502  0.41957398  0.64792632    -0.32600
H369        H  0.15883865  0.46240073  0.65013982     0.28800
H370        H  0.44583856  0.00744814  0.66722642     0.28800
H371        H  0.50279060  0.40276960  0.61073241     0.19400
H372        H  0.10224811  0.01526372  0.65144420     0.19400
C373        C  0.45772469  0.23944390  0.82646052    -0.06400
C374        C  0.41827835  0.25807204  0.82046764    -0.17600
C375        C  0.40365781  0.30506973  0.83829889     0.10800
C376        C  0.43203033  0.33373313  0.85619914    -0.06400
C377        C  0.95964196  0.31107110  0.87923750    -0.17600
C378        C  0.97573850  0.26403338  0.86136367     0.10800
S379        S  0.35949433  0.32974755  0.81806179    -0.32600
S380        S  0.02048410  0.23967290  0.88053724    -0.32600
H381        H  0.04623039  0.23439476  0.83723728     0.28800
H382        H  0.37002315  0.37628875  0.82372859     0.28800
H383        H  0.40107437  0.23804649  0.79780743     0.19400
H384        H  0.97661374  0.33225033  0.90126379     0.19400
C385        C  0.38266150  0.62188985  0.40815995     0.02800
C386        C  0.34493846  0.60205080  0.40542579    -0.13300
C387        C  0.33678059  0.57922749  0.36354926     0.00300
C388        C  0.36763849  0.57643024  0.32342183    -0.11900
C389        C  0.40618482  0.59519625  0.32598306     0.02800
C390        C  0.41303318  0.61752904  0.36852128    -0.11300
H391        H  0.32137622  0.60531935  0.43604793     0.08400
H392        H  0.36207548  0.55921833  0.29084329     0.05900
H393        H  0.44189938  0.63358368  0.37038178     0.05800
C394        C  0.34451722  0.91139726  0.15140902     0.02800
C395        C  0.37564159  0.91597593  0.17946285    -0.13300
C396        C  0.40598072  0.87733922  0.17870659     0.00300
C397        C  0.40556662  0.83550102  0.14806074    -0.11900
C398        C  0.37696199  0.83088304  0.11862944     0.02800
C399        C  0.34583659  0.86820167  0.12157778    -0.11300
H400        H  0.37583356  0.94887524  0.20200081     0.08400
H401        H  0.42778512  0.80566531  0.14677045     0.05900
H402        H  0.32340425  0.86439652  0.09905568     0.05800
C403        C  0.08799350  0.88070535  0.33352930     0.02800
C404        C  0.08415683  0.84864998  0.36494866    -0.13300
C405        C  0.10556418  0.85287612  0.40206125     0.00300
C406        C  0.13292554  0.88923030  0.40602379    -0.11900
C407        C  0.13944221  0.92009944  0.37330113     0.02800
C408        C  0.11587912  0.91576772  0.33789213    -0.11300
H409        H  0.06291181  0.82174120  0.36167711     0.08400
H410        H  0.15091970  0.89168777  0.43312893     0.05900
H411        H  0.11937960  0.93979657  0.31335276     0.05800
C412        C  0.10266273  0.64970307  0.14991974     0.02800
C413        C  0.10521379  0.68112952  0.11867851    -0.13300
C414        C  0.13877579  0.67634733  0.08133997     0.00300
C415        C  0.17117490  0.63916858  0.07596729    -0.11900
C416        C  0.16951821  0.60716885  0.10760241     0.02800
C417        C  0.13509117  0.61329497  0.14395782    -0.11300
H418        H  0.08025818  0.70875689  0.12277361     0.08400
H419        H  0.19708420  0.63509638  0.04750248     0.05900
H420        H  0.13329116  0.58888092  0.16776414     0.05800
O421        O  0.03668824  0.55476283  0.21554308    -0.74700
O422        O  0.00733722  0.67008556  0.29998297    -0.74800
O423        O  0.47767596  0.58691544  0.29250172    -0.74800
O424        O  0.06892893  0.63600787  0.22299374    -0.74900
O425        O  0.02771181  0.65769098  0.17650449    -0.74800
O426        O  0.43353944  0.61239559  0.25056851    -0.74800
O427        O  0.46721509  0.69361280  0.25326961    -0.74800
O428        O  0.49266738  0.57733205  0.17213711    -0.74800
Ni429      Ni  0.02420276  0.61115500  0.25924907     1.25400
Ni430      Ni  0.47874573  0.63626325  0.21152607     1.25400
C431        C  0.52139685  0.54841973  0.17888100     0.87400
C432        C  0.47920004  0.69925185  0.29181429     0.87400
C433        C  0.44031508  0.59574341  0.28628750     0.87400
C434        C  0.06449570  0.64978985  0.18550227     0.87600
O435        O  0.14328553  0.69260178  0.00435851    -0.74700
O436        O  0.11129599  0.77350629  0.42071985    -0.74800
O437        O  0.18001293  0.75266239  0.45277030    -0.74800
O438        O  0.07300488  0.71039562  0.47503922    -0.74900
O439        O  0.05321609  0.77078071  0.03115427    -0.74800
O440        O  0.16067305  0.81194630  0.01092598    -0.74800
O441        O  0.09344146  0.83329304  0.47835503    -0.74800
O442        O  0.12218627  0.75210322  0.06193371    -0.74800
Ni443      Ni  0.12721120  0.73039271  0.46066252     1.25400
Ni444      Ni  0.10624859  0.79437721  0.02238983     1.25400
C445        C  0.13618565  0.70875709  0.04733535     0.87400
C446        C  0.10206736  0.81803051  0.43521510     0.87400
C447        C  0.18812571  0.78844296  0.47897349     0.87400
C448        C  0.05056090  0.72820773  0.51369222     0.87600
O449        O  0.32129389  0.99161667  0.14218828    -0.74700
O450        O  0.24187535  0.57699289  0.10199230    -0.74800
O451        O  0.26068498  0.56830330  0.18256422    -0.74800
O452        O  0.29903137  0.50116047  0.06087550    -0.74900
O453        O  0.24874188  0.95373084  0.07319731    -0.74800
O454        O  0.21542460  0.01532365  0.19414558    -0.74800
O455        O  0.19287275  0.52865351  0.11680990    -0.74800
O456        O  0.27340435  0.94077077  0.15035290    -0.74800
Ni457      Ni  0.28291857  0.53606570  0.12163120     1.25400
Ni458      Ni  0.23118758  0.98279695  0.13408193     1.25400
C459        C  0.31140215  0.95052794  0.14952750     0.87400
C460        C  0.20336729  0.56855666  0.10671560     0.87400
C461        C  0.22754261  0.05567580  0.20539588     0.87400
C462        C  0.27910564  0.96665853  0.04698146     0.87600
O463        O  0.46525742  0.84179795  0.20426658    -0.74700
O464        O  0.05577723  0.84260733  0.27276704    -0.74800
O465        O  0.97672620  0.82406414  0.28669382    -0.74800
O466        O  0.04609266  0.85704295  0.18619608    -0.74900
O467        O  0.52466627  0.93260121  0.21423948    -0.74800
O468        O  0.45586399  0.89850319  0.31891181    -0.74800
O469        O  0.03608669  0.91849050  0.29996521    -0.74800
O470        O  0.44369736  0.91637375  0.23449832    -0.74800
Ni471      Ni  0.01179169  0.83887676  0.23651673     1.25400
Ni472      Ni  0.48961846  0.91942801  0.26792239     1.25400
C473        C  0.43965648  0.87883497  0.20756445     0.87400
C474        C  0.05930014  0.88063652  0.29965402     0.87400
C475        C  0.45576703  0.85417064  0.31930973     0.87400
C476        C  0.54405042  0.90014904  0.18188991     0.87600
O477        O  0.17814024  0.98146585  0.40855059    -0.74700
O478        O  0.26899562  0.56250895  0.40004355    -0.74800
O479        O  0.18770994  0.57244490  0.39174951    -0.74800
O480        O  0.25964808  0.47797577  0.41826291    -0.74900
O481        O  0.27891758  0.94181492  0.34609200    -0.74800
O482        O  0.21186442  0.04274069  0.31855166    -0.74800
O483        O  0.29223428  0.52821080  0.32800776    -0.74800
O484        O  0.19792119  0.95399101  0.33437769    -0.74800
Ni485      Ni  0.22254830  0.52449569  0.40726238     1.25400
Ni486      Ni  0.24554787  0.99073812  0.32892441     1.25400
C487        C  0.17331210  0.95366302  0.37244526     0.87400
C488        C  0.29711122  0.55620029  0.36348932     0.87400
C489        C  0.19058154  0.07497003  0.34971686     0.87400
C490        C  0.28123945  0.94553560  0.38821953     0.87600
O491        O  0.41546072  0.68253956  0.44794453    -0.74700
O492        O  0.41281643  0.78186336  0.04946483    -0.74800
O493        O  0.44775480  0.69149114  0.52393348    -0.74800
O494        O  0.38239727  0.77131827  0.47235657    -0.74900
O495        O  0.32712636  0.74005026  0.00726371    -0.74800
O496        O  0.39393767  0.66744870  0.06772000    -0.74800
O497        O  0.35494084  0.75750591  0.08596348    -0.74800
O498        O  0.36271256  0.65271980  0.48814188    -0.74800
Ni499      Ni  0.41693357  0.73239625  0.49733031     1.25400
Ni500      Ni  0.35768691  0.70323974  0.03882071     1.25400
C501        C  0.38787771  0.65294954  0.45046546     0.87400
C502        C  0.38174428  0.78794357  0.08304845     0.87400
C503        C  0.43318562  0.66782247  0.05461970     0.87400
C504        C  0.34357678  0.76767955  0.98121174     0.87600
C505        C  0.30447434  0.91078505  0.40681597    -0.06400
C506        C  0.27393271  0.39139560  0.43467600    -0.17600
C507        C  0.26104178  0.41578798  0.97922608     0.10800
C508        C  0.29030062  0.94124209  0.00007940    -0.06400
C509        C  0.33002041  0.94365125  0.97426923    -0.17600
C510        C  0.33724384  0.92899884  0.42683102     0.10800
S511        S  0.20530209  0.42391516  0.00080107    -0.32600
S512        S  0.38021915  0.94989665  0.39197662    -0.32600
H513        H  0.40359932  0.96012763  0.42671931     0.28800
H514        H  0.20420403  0.47287277  0.01461726     0.28800
H515        H  0.25028332  0.37447185  0.41864684     0.19400
H516        H  0.35309549  0.96193972  0.98995054     0.19400
C517        C  0.20159685  0.08802798  0.24419983    -0.06400
C518        C  0.22007106  0.62437074  0.26788681    -0.17600
C519        C  0.20273799  0.64109051  0.31398820     0.10800
C520        C  0.17145240  0.11613510  0.33482622    -0.06400
C521        C  0.14284992  0.10128480  0.30778058    -0.17600
C522        C  0.15959057  0.08015870  0.26270071     0.10800
S523        S  0.23036696  0.67844824  0.34922151    -0.32600
S524        S  0.13059637  0.03681543  0.23537844    -0.32600
H525        H  0.09439018  0.04327462  0.26934471     0.28800
H526        H  0.25678321  0.69297834  0.31290136     0.28800
H527        H  0.25005699  0.63458366  0.25313907     0.19400
H528        H  0.11326612  0.09189915  0.32458781     0.19400
C529        C  0.02703527  0.69679450  0.54138504    -0.06400
C530        C  0.02749453  0.64850150  0.02303735    -0.17600
C531        C  0.49755119  0.62154917  0.04380273     0.10800
C532        C  0.46453319  0.64625835  0.07682199    -0.06400
C533        C  0.47679810  0.68259669  0.60647850    -0.17600
C534        C  0.00535788  0.71175551  0.58718881     0.10800
S535        S  0.49158338  0.56300007  0.01716849    -0.32600
S536        S  0.01049289  0.76700739  0.62119090    -0.32600
H537        H  0.99193740  0.79365785  0.59310531     0.28800
H538        H  0.53100801  0.55605819  0.98834299     0.28800
H539        H  0.04794277  0.63333466  0.99124596     0.19400
H540        H  0.45676908  0.69580765  0.63912173     0.19400
C541        C  0.31544311  0.79787465  0.96536976    -0.06400
C542        C  0.29000284  0.82594459  0.00291134    -0.17600
C543        C  0.24749519  0.82192113  0.01011240     0.10800
C544        C  0.23041044  0.80075287  0.47301057    -0.06400
C545        C  0.25613482  0.78373013  0.43063106    -0.17600
C546        C  0.29892168  0.77887707  0.42738568     0.10800
S547        S  0.21793343  0.83790239  0.06774291    -0.32600
S548        S  0.32818747  0.73693026  0.38034884    -0.32600
H549        H  0.36696462  0.73801602  0.39427588     0.28800
H550        H  0.24914612  0.85954605  0.08765035     0.28800
H551        H  0.30397891  0.84079368  0.03120914     0.19400
H552        H  0.24299481  0.76816790  0.40194478     0.19400
C553        C  0.55917139  0.91311304  0.13735101    -0.06400
C554        C  0.52527955  0.92751171  0.11789526    -0.17600
C555        C  0.51203509  0.47570389  0.12566822     0.10800
C556        C  0.53823973  0.50694166  0.14467876    -0.06400
C557        C  0.08038155  0.49074798  0.14228672    -0.17600
C558        C  0.09140276  0.94235755  0.13755793     0.10800
S559        S  0.45956256  0.49361458  0.11992461    -0.32600
S560        S  0.14096491  0.91957364  0.14792560    -0.32600
H561        H  0.15883836  0.96240052  0.15014086     0.28800
H562        H  0.44583803  0.50744778  0.16722596     0.28800
H563        H  0.50279077  0.90277073  0.11073091     0.19400
H564        H  0.10224757  0.51526389  0.15144309     0.19400
C565        C  0.45772455  0.73944380  0.32645930    -0.06400
C566        C  0.41827821  0.75807205  0.32046646    -0.17600
C567        C  0.40365774  0.80506972  0.33829796     0.10800
C568        C  0.43203035  0.83373294  0.35619819    -0.06400
C569        C  0.95964198  0.81107077  0.37923650    -0.17600
C570        C  0.97573843  0.76403304  0.36136251     0.10800
S571        S  0.35949398  0.82974778  0.31806143    -0.32600
S572        S  0.02048412  0.73967238  0.38053585    -0.32600
H573        H  0.04623031  0.73439447  0.33723585     0.28800
H574        H  0.37002340  0.87628877  0.32372713     0.28800
H575        H  0.40107421  0.73804662  0.29780631     0.19400
H576        H  0.97661378  0.83224992  0.40126281     0.19400
C577        C  0.38266176  0.62189006  0.90815996     0.02800
C578        C  0.34493874  0.60205104  0.90542575    -0.13300
C579        C  0.33678090  0.57922772  0.86354927     0.00300
C580        C  0.36763888  0.57643040  0.82342181    -0.11900
C581        C  0.40618520  0.59519641  0.82598312     0.02800
C582        C  0.41303352  0.61752919  0.86852133    -0.11300
H583        H  0.32137638  0.60531972  0.93604792     0.08400
H584        H  0.36207592  0.55921851  0.79084330     0.05900
H585        H  0.44189969  0.63358386  0.87038184     0.05800
C586        C  0.34451734  0.91139685  0.65140903     0.02800
C587        C  0.37564176  0.91597557  0.67946275    -0.13300
C588        C  0.40598087  0.87733889  0.67870660     0.00300
C589        C  0.40556669  0.83550060  0.64806089    -0.11900
C590        C  0.37696209  0.83088259  0.61862957     0.02800
C591        C  0.34583669  0.86820120  0.62157787    -0.11300
H592        H  0.37583380  0.94887504  0.70200061     0.08400
H593        H  0.42778515  0.80566486  0.64677070     0.05900
H594        H  0.32340437  0.86439601  0.59905574     0.05800
C595        C  0.08799371  0.88070568  0.83352923     0.02800
C596        C  0.08415699  0.84865033  0.86494864    -0.13300
C597        C  0.10556429  0.85287652  0.90206130     0.00300
C598        C  0.13292563  0.88923069  0.90602383    -0.11900
C599        C  0.13944234  0.92009983  0.87330114     0.02800
C600        C  0.11587927  0.91576807  0.83789212    -0.11300
H601        H  0.06291199  0.82174164  0.86167711     0.08400
H602        H  0.15091976  0.89168824  0.93312906     0.05900
H603        H  0.11937971  0.93979701  0.81335278     0.05800
C604        C  0.10266311  0.64970308  0.64991977     0.02800
C605        C  0.10521417  0.68112940  0.61867842    -0.13300
C606        C  0.13877608  0.67634705  0.58133976     0.00300
C607        C  0.17117511  0.63916820  0.57596701    -0.11900
C608        C  0.16951838  0.60716851  0.60760218     0.02800
C609        C  0.13509142  0.61329480  0.64395770    -0.11300
H610        H  0.08025863  0.70875687  0.62277353     0.08400
H611        H  0.19708442  0.63509595  0.54750221     0.05900
H612        H  0.13329144  0.58888081  0.66776406     0.05800
O613        O  0.03668865  0.55476312  0.71554335    -0.74700
O614        O  0.00733755  0.67008586  0.79998317    -0.74800
O615        O  0.47767634  0.58691574  0.79250188    -0.74800
O616        O  0.06892931  0.63600815  0.72299394    -0.74900
O617        O  0.02771218  0.65769112  0.67650462    -0.74800
O618        O  0.43353982  0.61239576  0.75056858    -0.74800
O619        O  0.46721536  0.69361301  0.75326969    -0.74800
O620        O  0.49266765  0.57733220  0.67213735    -0.74800
Ni621      Ni  0.02420311  0.61115530  0.75924928     1.25400
Ni622      Ni  0.47874608  0.63626343  0.71152621     1.25400
C623        C  0.52139710  0.54841991  0.67888128     0.87400
C624        C  0.47920024  0.69925207  0.79181444     0.87400
C625        C  0.44031547  0.59574365  0.78628759     0.87400
C626        C  0.06449608  0.64979002  0.68550240     0.87600
O627        O  0.14328576  0.69260155  0.50435833    -0.74700
O628        O  0.11129589  0.77350659  0.92071986    -0.74800
O629        O  0.18001283  0.75266252  0.95277034    -0.74800
O630        O  0.07300468  0.71039608  0.97503929    -0.74900
O631        O  0.05321625  0.77078017  0.53115430    -0.74800
O632        O  0.16067311  0.81194615  0.51092595    -0.74800
O633        O  0.09344151  0.83329335  0.97835503    -0.74800
O634        O  0.12218652  0.75210295  0.56193357    -0.74800
Ni635      Ni  0.12721106  0.73039297  0.96066258     1.25400
Ni636      Ni  0.10624867  0.79437691  0.52238980     1.25400
C637        C  0.13618591  0.70875683  0.54733517     0.87400
C638        C  0.10206738  0.81803082  0.93521510     0.87400
C639        C  0.18812562  0.78844309  0.97897352     0.87400
C640        C  0.05056073  0.72820827  0.01369226     0.87600
O641        O  0.32129413  0.99161622  0.64218801    -0.74700
O642        O  0.24187549  0.57699248  0.60199209    -0.74800
O643        O  0.26068510  0.56830318  0.68256411    -0.74800
O644        O  0.29903138  0.50115988  0.56087552    -0.74900
O645        O  0.24874206  0.95373038  0.57319706    -0.74800
O646        O  0.21542483  0.01532330  0.69414533    -0.74800
O647        O  0.19287281  0.52865326  0.61680994    -0.74800
O648        O  0.27340455  0.94077037  0.65035268    -0.74800
Ni649      Ni  0.28291866  0.53606536  0.62163115     1.25400
Ni650      Ni  0.23118781  0.98279655  0.63408167     1.25400
C651        C  0.31140233  0.95052752  0.64952733     0.87400
C652        C  0.20336743  0.56855632  0.60671543     0.87400
C653        C  0.22754284  0.05567546  0.70539555     0.87400
C654        C  0.27910584  0.96665801  0.54698120     0.87600
O655        O  0.46525756  0.84179766  0.70426668    -0.74700
O656        O  0.05577741  0.84260742  0.77276708    -0.74800
O657        O  0.97672636  0.82406427  0.78669405    -0.74800
O658        O  0.04609279  0.85704269  0.68619603    -0.74900
O659        O  0.52466651  0.93260102  0.71423923    -0.74800
O660        O  0.45586414  0.89850340  0.81891178    -0.74800
O661        O  0.03608691  0.91849065  0.79996500    -0.74800
O662        O  0.44369763  0.91637357  0.73449807    -0.74800
Ni663      Ni  0.01179183  0.83887667  0.73651681     1.25400
Ni664      Ni  0.48961868  0.91942799  0.76792220     1.25400
C665        C  0.43965668  0.87883467  0.70756436     0.87400
C666        C  0.05930037  0.88063670  0.79965390     0.87400
C667        C  0.45576720  0.85417086  0.81930986     0.87400
C668        C  0.54405059  0.90014875  0.68188973     0.87600
O669        O  0.17814029  0.98146638  0.90855051    -0.74700
O670        O  0.26899592  0.56250913  0.90004357    -0.74800
O671        O  0.18771016  0.57244512  0.89174952    -0.74800
O672        O  0.25964826  0.47797592  0.91826295    -0.74900
O673        O  0.27891775  0.94181505  0.84609203    -0.74800
O674        O  0.21186473  0.04274086  0.81855147    -0.74800
O675        O  0.29223458  0.52821112  0.82800773    -0.74800
O676        O  0.19792138  0.95399125  0.83437770    -0.74800
Ni677      Ni  0.22254854  0.52449591  0.90726240     1.25400
Ni678      Ni  0.24554811  0.99073827  0.82892436     1.25400
C679        C  0.17331221  0.95366341  0.87244525     0.87400
C680        C  0.29711152  0.55620053  0.86348930     0.87400
C681        C  0.19058185  0.07497028  0.84971658     0.87400
C682        C  0.28123958  0.94553581  0.88821957     0.87600
O683        O  0.41546082  0.68254000  0.94794439    -0.74700
O684        O  0.41281651  0.78186285  0.54946498    -0.74800
O685        O  0.44775478  0.69149165  0.02393342    -0.74800
O686        O  0.38239721  0.77131866  0.97235633    -0.74900
O687        O  0.32712636  0.74004995  0.50726396    -0.74800
O688        O  0.39393773  0.66744814  0.56772008    -0.74800
O689        O  0.35494098  0.75750540  0.58596372    -0.74800
O690        O  0.36271275  0.65272015  0.98814179    -0.74800
Ni691      Ni  0.41693357  0.73239674  0.99733016     1.25400
Ni692      Ni  0.35768690  0.70323930  0.53882089     1.25400
C693        C  0.38787791  0.65294987  0.95046538     0.87400
C694        C  0.38174440  0.78794307  0.58304864     0.87400
C695        C  0.43318569  0.66782193  0.55461973     0.87400
C696        C  0.34357683  0.76767920  0.48121195     0.87600
C697        C  0.30447435  0.91078528  0.90681618    -0.06400
C698        C  0.27393347  0.39139571  0.93467594    -0.17600
C699        C  0.26104122  0.41578787  0.47922619     0.10800
C700        C  0.29030074  0.94124151  0.50007918    -0.06400
C701        C  0.33002054  0.94365069  0.47426899    -0.17600
C702        C  0.33724385  0.92899906  0.92683129     0.10800
S703        S  0.20530156  0.42391538  0.50080140    -0.32600
S704        S  0.38021933  0.94989654  0.89197690    -0.32600
H705        H  0.40359943  0.96012749  0.92671966     0.28800
H706        H  0.20420381  0.47287295  0.51461762     0.28800
H707        H  0.25028419  0.37447166  0.91864674     0.19400
H708        H  0.35309567  0.96193904  0.48995030     0.19400
C709        C  0.20159708  0.08802782  0.74419942    -0.06400
C710        C  0.22007133  0.62437078  0.76788673    -0.17600
C711        C  0.20273838  0.64109066  0.81398811     0.10800
C712        C  0.17145279  0.11613530  0.83482580    -0.06400
C713        C  0.14285022  0.10128495  0.80778027    -0.17600
C714        C  0.15959080  0.08015866  0.76270042     0.10800
S715        S  0.23036750  0.67844839  0.84922126    -0.32600
S716        S  0.13059656  0.03681524  0.73537843    -0.32600
H717        H  0.09439047  0.04327442  0.76934484     0.28800
H718        H  0.25678384  0.69297823  0.81290102     0.28800
H719        H  0.25005732  0.63458366  0.75313890     0.19400
H720        H  0.11326647  0.09189937  0.82458759     0.19400
C721        C  0.02703517  0.69679506  0.04138514    -0.06400
C722        C  0.02749454  0.64850100  0.52303706    -0.17600
C723        C  0.49755124  0.62154861  0.54380241     0.10800
C724        C  0.46453334  0.64625771  0.57682185    -0.06400
C725        C  0.47679783  0.68259746  0.10647857    -0.17600
C726        C  0.00535772  0.71175620  0.08718887     0.10800
S727        S  0.49158310  0.56299976  0.51716780    -0.32600
S728        S  0.01049295  0.76700800  0.12119092    -0.32600
H729        H  0.99193736  0.79365852  0.09310546     0.28800
H730        H  0.53100759  0.55605789  0.48834205     0.28800
H731        H  0.04794258  0.63333430  0.49124558     0.19400
H732        H  0.45676872  0.69580850  0.13912174     0.19400
C733        C  0.31544321  0.79787433  0.46536989    -0.06400
C734        C  0.29000292  0.82594431  0.50291144    -0.17600
C735        C  0.24749525  0.82192096  0.51011242     0.10800
C736        C  0.23041035  0.80075302  0.97301058    -0.06400
C737        C  0.25613468  0.78373032  0.93063106    -0.17600
C738        C  0.29892154  0.77887732  0.92738560     0.10800
S739        S  0.21793336  0.83790252  0.56774287    -0.32600
S740        S  0.32818735  0.73693074  0.88034858    -0.32600
H741        H  0.36696446  0.73801613  0.89427574     0.28800
H742        H  0.24914616  0.85954577  0.58765045     0.28800
H743        H  0.30397895  0.84079337  0.53120925     0.19400
H744        H  0.24299464  0.76816808  0.90194480     0.19400
C745        C  0.55917141  0.91311266  0.63735075    -0.06400
C746        C  0.52527949  0.92751148  0.61789521    -0.17600
C747        C  0.51203529  0.47570405  0.62566855     0.10800
C748        C  0.53823993  0.50694181  0.64467911    -0.06400
C749        C  0.08038190  0.49074812  0.64228704    -0.17600
C750        C  0.09140293  0.94235709  0.63755754     0.10800
S751        S  0.45956283  0.49361481  0.61992493    -0.32600
S752        S  0.14096521  0.91957324  0.64792494    -0.32600
H753        H  0.15883843  0.96240028  0.65014083     0.28800
H754        H  0.44583833  0.50744768  0.66722633     0.28800
H755        H  0.50279062  0.90277056  0.61073098     0.19400
H756        H  0.10224797  0.51526404  0.65144342     0.19400
C757        C  0.45772470  0.73944404  0.82645936    -0.06400
C758        C  0.41827839  0.75807228  0.82046651    -0.17600
C759        C  0.40365786  0.80506993  0.83829803     0.10800
C760        C  0.43203045  0.83373318  0.85619833    -0.06400
C761        C  0.95964210  0.81107099  0.87923665    -0.17600
C762        C  0.97573860  0.76403331  0.86136260     0.10800
S763        S  0.35949414  0.82974795  0.81806144    -0.32600
S764        S  0.02048435  0.73967280  0.88053587    -0.32600
H765        H  0.04623055  0.73439506  0.83723590     0.28800
H766        H  0.37002367  0.87628891  0.82372690     0.28800
H767        H  0.40107438  0.73804683  0.79780628     0.19400
H768        H  0.97661397  0.83225009  0.90126292     0.19400
C769        C  0.88266141  0.12189022  0.40816094     0.02800
C770        C  0.84493843  0.10205089  0.40542682    -0.13300
C771        C  0.83678066  0.07922745  0.36355027     0.00300
C772        C  0.86763856  0.07643028  0.32342285    -0.11900
C773        C  0.90618480  0.09519655  0.32598408     0.02800
C774        C  0.91303306  0.11752945  0.36852227    -0.11300
H775        H  0.82137623  0.10531936  0.43604891     0.08400
H776        H  0.86207566  0.05921827  0.29084433     0.05900
H777        H  0.94189924  0.13358428  0.37038274     0.05800
C778        C  0.84451768  0.41139776  0.15140908     0.02800
C779        C  0.87564190  0.41597640  0.17946308    -0.13300
C780        C  0.90598082  0.37733964  0.17870724     0.00300
C781        C  0.90556672  0.33550124  0.14806157    -0.11900
C782        C  0.87696232  0.33088338  0.11863001     0.02800
C783        C  0.84583706  0.36820204  0.12157797    -0.11300
H784        H  0.87583393  0.44887588  0.20200095     0.08400
H785        H  0.92778495  0.30566554  0.14677162     0.05900
H786        H  0.82340491  0.36439684  0.09905579     0.05800
C787        C  0.58799341  0.38070538  0.33353007     0.02800
C788        C  0.58415669  0.34865018  0.36494958    -0.13300
C789        C  0.60556416  0.35287639  0.40206208     0.00300
C790        C  0.63292568  0.38923046  0.40602436    -0.11900
C791        C  0.63944231  0.42009946  0.37330153     0.02800
C792        C  0.61587912  0.41576769  0.33789263    -0.11300
H793        H  0.56291157  0.32174150  0.36167822     0.08400
H794        H  0.65091991  0.39168795  0.43312936     0.05900
H795        H  0.61937954  0.43979640  0.31335318     0.05800
C796        C  0.60266280  0.14970357  0.14992090     0.02800
C797        C  0.60521396  0.18113001  0.11867967    -0.13300
C798        C  0.63877577  0.17634759  0.08134093     0.00300
C799        C  0.67117465  0.13916851  0.07596800    -0.11900
C800        C  0.66951789  0.10716879  0.10760315     0.02800
C801        C  0.63509103  0.11329517  0.14395874    -0.11300
H802        H  0.58025844  0.20875764  0.12277493     0.08400
H803        H  0.69708378  0.13509611  0.04750307     0.05900
H804        H  0.63329099  0.08888110  0.16776508     0.05800
O805        O  0.53668849  0.05476344  0.21554410    -0.74700
O806        O  0.50733713  0.17008607  0.29998419    -0.74800
O807        O  0.97767591  0.08691591  0.29250275    -0.74800
O808        O  0.56892900  0.13600859  0.22299498    -0.74900
O809        O  0.52771189  0.15769160  0.17650568    -0.74800
O810        O  0.93353935  0.11239597  0.25056952    -0.74800
O811        O  0.96721495  0.19361326  0.25327075    -0.74800
O812        O  0.99266732  0.07733261  0.17213821    -0.74800
Ni813      Ni  0.52420285  0.11115557  0.25925021     1.25400
Ni814      Ni  0.97874566  0.13626376  0.21152720     1.25400
C815        C  0.02139691  0.04842037  0.17888200     0.87400
C816        C  0.97919983  0.19925230  0.29181549     0.87400
C817        C  0.94031502  0.09574381  0.28628851     0.87400
C818        C  0.56449578  0.14979051  0.18550347     0.87600
O819        O  0.64328572  0.19260215  0.00435945    -0.74700
O820        O  0.61129597  0.27350663  0.42072080    -0.74800
O821        O  0.68001302  0.25266295  0.45277117    -0.74800
O822        O  0.57300510  0.21039591  0.47504007    -0.74900
O823        O  0.55321625  0.27078105  0.03115499    -0.74800
O824        O  0.66067324  0.31194665  0.01092708    -0.74800
O825        O  0.59344160  0.33329345  0.47835592    -0.74800
O826        O  0.62218627  0.25210351  0.06193467    -0.74800
Ni827      Ni  0.62721135  0.23039310  0.46066343     1.25400
Ni828      Ni  0.60624874  0.29437757  0.02239079     1.25400
C829        C  0.63618568  0.20875740  0.04733632     0.87400
C830        C  0.60206740  0.31803086  0.43521601     0.87400
C831        C  0.68812576  0.28844347  0.47897447     0.87400
C832        C  0.55056106  0.22820809  0.51369296     0.87600
O833        O  0.82129435  0.49161713  0.14218792    -0.74700
O834        O  0.74187495  0.07699241  0.10199263    -0.74800
O835        O  0.76068476  0.06830300  0.18256456    -0.74800
O836        O  0.79903072  0.00115969  0.06087592    -0.74900
O837        O  0.74874276  0.45373125  0.07319647    -0.74800
O838        O  0.71542499  0.51532374  0.19414488    -0.74800
O839        O  0.69287215  0.02865342  0.11681081    -0.74800
O840        O  0.77340491  0.44077107  0.15035228    -0.74800
Ni841      Ni  0.78291813  0.03606519  0.12163155     1.25400
Ni842      Ni  0.73118818  0.48279717  0.13408116     1.25400
C843        C  0.81140264  0.45052836  0.14952716     0.87400
C844        C  0.70336684  0.06855644  0.10671623     0.87400
C845        C  0.72754286  0.55567597  0.20539531     0.87400
C846        C  0.77910655  0.46665914  0.04698080     0.87600
O847        O  0.96525724  0.34179816  0.20426755    -0.74700
O848        O  0.55577700  0.34260726  0.27276808    -0.74800
O849        O  0.47672590  0.32406456  0.28669487    -0.74800
O850        O  0.54609269  0.35704266  0.18619703    -0.74900
O851        O  0.02466665  0.43260106  0.21424010    -0.74800
O852        O  0.95586389  0.39850371  0.31891258    -0.74800
O853        O  0.53608668  0.41849055  0.29996597    -0.74800
O854        O  0.94369759  0.41637416  0.23449886    -0.74800
Ni855      Ni  0.51179152  0.33887682  0.23651774     1.25400
Ni856      Ni  0.98961861  0.41942821  0.26792306     1.25400
C857        C  0.93965654  0.37883525  0.20756515     0.87400
C858        C  0.55930001  0.38063651  0.29965489     0.87400
C859        C  0.95576676  0.35417117  0.31931065     0.87400
C860        C  0.04405060  0.40014867  0.18189063     0.87600
O861        O  0.67814036  0.48146618  0.40855046    -0.74700
O862        O  0.76899560  0.06250866  0.40004433    -0.74800
O863        O  0.68770995  0.07244473  0.39175002    -0.74800
O864        O  0.75964789  0.97797533  0.41826330    -0.74900
O865        O  0.77891782  0.44181531  0.34609164    -0.74800
O866        O  0.71186380  0.54274037  0.31855118    -0.74800
O867        O  0.79223463  0.02821049  0.32800859    -0.74800
O868        O  0.69792132  0.45399066  0.33437772    -0.74800
Ni869      Ni  0.72254822  0.02449538  0.40726284     1.25400
Ni870      Ni  0.74554770  0.49073814  0.32892400     1.25400
C871        C  0.67331224  0.45366299  0.37244537     0.87400
C872        C  0.79711135  0.05620004  0.36349023     0.87400
C873        C  0.69058108  0.57496989  0.34971635     0.87400
C874        C  0.78123986  0.44553617  0.38821913     0.87600
O875        O  0.91546061  0.18254011  0.44794537    -0.74700
O876        O  0.91281676  0.28186347  0.04946556    -0.74800
O877        O  0.94775493  0.19149167  0.52393431    -0.74800
O878        O  0.88239729  0.27131883  0.47235747    -0.74900
O879        O  0.82712653  0.24005045  0.00726467    -0.74800
O880        O  0.89393789  0.16744879  0.06772093    -0.74800
O881        O  0.85494121  0.25750611  0.08596438    -0.74800
O882        O  0.86271256  0.15272033  0.48814287    -0.74800
Ni883      Ni  0.91693367  0.23239678  0.49733113     1.25400
Ni884      Ni  0.85768708  0.20323989  0.03882168     1.25400
C885        C  0.88787760  0.15295005  0.45046640     0.87400
C886        C  0.88174465  0.28794377  0.08304920     0.87400
C887        C  0.93318584  0.16782267  0.05462071     0.87400
C888        C  0.84357698  0.26767964  0.98121260     0.87600
C889        C  0.80447512  0.41078591  0.40681558    -0.06400
C890        C  0.77393165  0.89139514  0.43467628    -0.17600
C891        C  0.76104014  0.91578790  0.97922681     0.10800
C892        C  0.79030183  0.44124273  0.00007873    -0.06400
C893        C  0.83002157  0.44365252  0.97426859    -0.17600
C894        C  0.83724446  0.42900018  0.42683060     0.10800
S895        S  0.70530052  0.92391518  0.00080240    -0.32600
S896        S  0.88021949  0.44989851  0.39197622    -0.32600
H897        H  0.90359944  0.46013021  0.42671900     0.28800
H898        H  0.70420264  0.97287275  0.01461872     0.28800
H899        H  0.75028207  0.87447175  0.41864707     0.19400
H900        H  0.85309646  0.46194122  0.98994991     0.19400
C901        C  0.70159688  0.58802802  0.24419924    -0.06400
C902        C  0.72007129  0.12437060  0.26788714    -0.17600
C903        C  0.70273856  0.14109046  0.31398857     0.10800
C904        C  0.67145189  0.61613487  0.33482559    -0.06400
C905        C  0.64284966  0.60128446  0.30777968    -0.17600
C906        C  0.65959053  0.58015862  0.26269979     0.10800
S907        S  0.73036834  0.17844746  0.34922160    -0.32600
S908        S  0.63059649  0.53681543  0.23537712    -0.32600
H909        H  0.59439004  0.54327472  0.26934306     0.28800
H910        H  0.75678423  0.19297772  0.31290126     0.28800
H911        H  0.75005726  0.13458335  0.25313917     0.19400
H912        H  0.61326588  0.59189853  0.32458668     0.19400
C913        C  0.52703553  0.19679492  0.54138589    -0.06400
C914        C  0.52749479  0.14850183  0.02303835    -0.17600
C915        C  0.99755143  0.12154956  0.04380386     0.10800
C916        C  0.96453345  0.14625878  0.07682310    -0.06400
C917        C  0.97679827  0.18259732  0.60647943    -0.17600
C918        C  0.50535823  0.21175598  0.58718964     0.10800
S919        S  0.99158332  0.06300066  0.01716945    -0.32600
S920        S  0.51049343  0.26700781  0.62119170    -0.32600
H921        H  0.49193772  0.29365831  0.59310630     0.28800
H922        H  0.03100806  0.05605853  0.98834417     0.28800
H923        H  0.54794298  0.13333499  0.99124701     0.19400
H924        H  0.95676932  0.19580831  0.63912257     0.19400
C925        C  0.81544334  0.29787466  0.96537047    -0.06400
C926        C  0.79000314  0.32594488  0.00291194    -0.17600
C927        C  0.74749542  0.32192181  0.01011307     0.10800
C928        C  0.73041048  0.30075352  0.47301153    -0.06400
C929        C  0.75613485  0.28373051  0.43063210    -0.17600
C930        C  0.79892169  0.27887747  0.42738670     0.10800
S931        S  0.71793344  0.33790466  0.06774341    -0.32600
S932        S  0.82818743  0.23693061  0.38034989    -0.32600
H933        H  0.86696459  0.23801636  0.39427690     0.28800
H934        H  0.74914677  0.35954664  0.08765108     0.28800
H935        H  0.80397926  0.34079420  0.03120958     0.19400
H936        H  0.74299484  0.26816803  0.40194593     0.19400
C937        C  0.05917123  0.41311239  0.13735152    -0.06400
C938        C  0.02527917  0.42751056  0.11789587    -0.17600
C939        C  0.01203548  0.97570507  0.12566820     0.10800
C940        C  0.03823997  0.00694248  0.14467957    -0.06400
C941        C  0.58038184  0.99074858  0.14228764    -0.17600
C942        C  0.59140263  0.44235702  0.13755785     0.10800
S943        S  0.95956317  0.99361610  0.11992425    -0.32600
S944        S  0.64096495  0.41957379  0.14792562    -0.32600
H945        H  0.65883852  0.46240058  0.15013914     0.28800
H946        H  0.94583822  0.00744822  0.16722566     0.28800
H947        H  0.00279039  0.40276941  0.11073210     0.19400
H948        H  0.60224782  0.01526425  0.15144451     0.19400
C949        C  0.95772429  0.23944428  0.32646043    -0.06400
C950        C  0.91827799  0.25807249  0.32046755    -0.17600
C951        C  0.90365747  0.30507018  0.33829887     0.10800
C952        C  0.93203003  0.33373351  0.35619914    -0.06400
C953        C  0.45964159  0.31107137  0.37923748    -0.17600
C954        C  0.47573803  0.26403363  0.36136363     0.10800
S955        S  0.85949398  0.32974806  0.31806180    -0.32600
S956        S  0.52048352  0.23967302  0.38053725    -0.32600
H957        H  0.54622990  0.23439499  0.33723735     0.28800
H958        H  0.87002316  0.37628915  0.32372789     0.28800
H959        H  0.90107399  0.23804696  0.29780732     0.19400
H960        H  0.47661344  0.33225049  0.40126379     0.19400
C961        C  0.88266176  0.12189000  0.90816095     0.02800
C962        C  0.84493881  0.10205074  0.90542669    -0.13300
C963        C  0.83678104  0.07922736  0.86355019     0.00300
C964        C  0.86763900  0.07643021  0.82342275    -0.11900
C965        C  0.90618526  0.09519639  0.82598410     0.02800
C966        C  0.91303350  0.11752918  0.86852232    -0.11300
H967        H  0.82137646  0.10531932  0.93604885     0.08400
H968        H  0.86207612  0.05921834  0.79084423     0.05900
H969        H  0.94189972  0.13358395  0.87038288     0.05800
C970        C  0.84451775  0.41139760  0.65140932     0.02800
C971        C  0.87564201  0.41597626  0.67946333    -0.13300
C972        C  0.90598107  0.37733954  0.67870729     0.00300
C973        C  0.90556699  0.33550125  0.64806157    -0.11900
C974        C  0.87696243  0.33088323  0.61863019     0.02800
C975        C  0.84583718  0.36820189  0.62157833    -0.11300
H976        H  0.87583394  0.44887567  0.70200130     0.08400
H977        H  0.92778542  0.30566552  0.64677144     0.05900
H978        H  0.82340480  0.36439663  0.59905608     0.05800
C979        C  0.58799363  0.38070558  0.83353014     0.02800
C980        C  0.58415692  0.34865041  0.86494968    -0.13300
C981        C  0.60556439  0.35287663  0.90206216     0.00300
C982        C  0.63292602  0.38923060  0.90602436    -0.11900
C983        C  0.63944269  0.42009957  0.87330151     0.02800
C984        C  0.61587939  0.41576786  0.83789269    -0.11300
H985        H  0.56291179  0.32174170  0.86167839     0.08400
H986        H  0.65092029  0.39168804  0.93312936     0.05900
H987        H  0.61937981  0.43979663  0.81335329     0.05800
C988        C  0.60266314  0.14970328  0.64992077     0.02800
C989        C  0.60521419  0.18112966  0.61867946    -0.13300
C990        C  0.63877599  0.17634726  0.58134072     0.00300
C991        C  0.67117485  0.13916815  0.57596772    -0.11900
C992        C  0.66951812  0.10716841  0.60760288     0.02800
C993        C  0.63509135  0.11329490  0.64395856    -0.11300
H994        H  0.58025869  0.20875724  0.62277473     0.08400
H995        H  0.69708397  0.13509576  0.54750279     0.05900
H996        H  0.63329136  0.08888084  0.66776501     0.05800
O997        O  0.53668894  0.05476308  0.71554408    -0.74700
O998        O  0.50733765  0.17008575  0.79998418    -0.74800
O999        O  0.97767639  0.08691556  0.79250274    -0.74800
O1000       O  0.56892946  0.13600824  0.72299490    -0.74900
O1001       O  0.52771228  0.15769143  0.67650573    -0.74800
O1002       O  0.93353987  0.11239578  0.75056955    -0.74800
O1003       O  0.96721546  0.19361302  0.75327077    -0.74800
O1004       O  0.99266783  0.07733242  0.67213822    -0.74800
Ni1005     Ni  0.52420334  0.11115522  0.75925019     1.25400
Ni1006     Ni  0.97874616  0.13626355  0.71152721     1.25400
C1007       C  0.02139735  0.04842009  0.67888199     0.87400
C1008       C  0.97920032  0.19925200  0.79181552     0.87400
C1009       C  0.94031551  0.09574358  0.78628853     0.87400
C1010       C  0.56449617  0.14979026  0.68550344     0.87600
O1011       O  0.64328597  0.19260198  0.50435929    -0.74700
O1012       O  0.61129604  0.27350690  0.92072089    -0.74800
O1013       O  0.68001292  0.25266301  0.95277129    -0.74800
O1014       O  0.57300489  0.21039634  0.97504010    -0.74900
O1015       O  0.55321627  0.27078060  0.53115494    -0.74800
O1016       O  0.66067316  0.31194647  0.51092701    -0.74800
O1017       O  0.59344178  0.33329374  0.97835600    -0.74800
O1018       O  0.62218639  0.25210325  0.56193455    -0.74800
Ni1019     Ni  0.62721123  0.23039333  0.96066354     1.25400
Ni1020     Ni  0.60624870  0.29437727  0.52239069     1.25400
C1021       C  0.63618590  0.20875716  0.54733615     0.87400
C1022       C  0.60206756  0.31803113  0.93521610     0.87400
C1023       C  0.68812576  0.28844355  0.97897449     0.87400
C1024       C  0.55056089  0.22820858  0.01369301     0.87600
O1025       O  0.82129444  0.49161691  0.64218797    -0.74700
O1026       O  0.74187516  0.07699200  0.60199239    -0.74800
O1027       O  0.76068500  0.06830258  0.68256423    -0.74800
O1028       O  0.79903080  0.00115914  0.56087568    -0.74900
O1029       O  0.74874263  0.45373087  0.57319670    -0.74800
O1030       O  0.71542494  0.51532375  0.69414496    -0.74800
O1031       O  0.69287232  0.02865304  0.61681049    -0.74800
O1032       O  0.77340496  0.44077097  0.65035259    -0.74800
Ni1033     Ni  0.78291831  0.03606472  0.62163128     1.25400
Ni1034     Ni  0.73118817  0.48279697  0.63408133     1.25400
C1035       C  0.81140273  0.45052822  0.64952739     0.87400
C1036       C  0.70336705  0.06855604  0.60671593     0.87400
C1037       C  0.72754290  0.55567595  0.70539529     0.87400
C1038       C  0.77910638  0.46665868  0.54698091     0.87600
O1039       O  0.96525760  0.34179814  0.70426749    -0.74700
O1040       O  0.55577720  0.34260736  0.77276815    -0.74800
O1041       O  0.47672610  0.32406441  0.78669484    -0.74800
O1042       O  0.54609285  0.35704277  0.68619711    -0.74900
O1043       O  0.02466666  0.43260112  0.71424028    -0.74800
O1044       O  0.95586405  0.39850348  0.81891271    -0.74800
O1045       O  0.53608685  0.41849063  0.79996603    -0.74800
O1046       O  0.94369763  0.41637401  0.73449908    -0.74800
Ni1047     Ni  0.51179172  0.33887682  0.73651776     1.25400
Ni1048     Ni  0.98961866  0.41942814  0.76792322     1.25400
C1049       C  0.93965675  0.37883520  0.70756522     0.87400
C1050       C  0.55930022  0.38063664  0.79965494     0.87400
C1051       C  0.95576702  0.35417092  0.81931070     0.87400
C1052       C  0.04405081  0.40014882  0.68189084     0.87600
O1053       O  0.67814067  0.48146638  0.90855048    -0.74700
O1054       O  0.76899578  0.06250898  0.90004411    -0.74800
O1055       O  0.68771014  0.07244503  0.89174973    -0.74800
O1056       O  0.75964800  0.97797568  0.91826326    -0.74900
O1057       O  0.77891824  0.44181562  0.84609163    -0.74800
O1058       O  0.71186419  0.54274062  0.81855118    -0.74800
O1059       O  0.79223492  0.02821050  0.82800848    -0.74800
O1060       O  0.69792165  0.45399092  0.83437772    -0.74800
Ni1061     Ni  0.72254837  0.02449574  0.90726268     1.25400
Ni1062     Ni  0.74554806  0.49073840  0.82892401     1.25400
C1063       C  0.67331258  0.45366319  0.87244537     0.87400
C1064       C  0.79711165  0.05620012  0.86349004     0.87400
C1065       C  0.69058152  0.57497014  0.84971637     0.87400
C1066       C  0.78124025  0.44553644  0.88821913     0.87600
O1067       O  0.91546081  0.18253995  0.94794538    -0.74700
O1068       O  0.91281684  0.28186333  0.54946575    -0.74800
O1069       O  0.94775498  0.19149177  0.02393437    -0.74800
O1070       O  0.88239741  0.27131872  0.97235722    -0.74900
O1071       O  0.82712641  0.24005053  0.50726493    -0.74800
O1072       O  0.89393786  0.16744866  0.56772095    -0.74800
O1073       O  0.85494122  0.25750604  0.58596452    -0.74800
O1074       O  0.86271270  0.15272024  0.98814282    -0.74800
Ni1075     Ni  0.91693373  0.23239676  0.99733105     1.25400
Ni1076     Ni  0.85768701  0.20323987  0.53882180     1.25400
C1077       C  0.88787784  0.15294987  0.95046639     0.87400
C1078       C  0.88174472  0.28794364  0.58304940     0.87400
C1079       C  0.93318581  0.16782250  0.55462062     0.87400
C1080       C  0.84357685  0.26767978  0.48121292     0.87600
C1081       C  0.80447570  0.41078626  0.90681551    -0.06400
C1082       C  0.77393148  0.89139558  0.93467662    -0.17600
C1083       C  0.76104031  0.91578733  0.47922651     0.10800
C1084       C  0.79030145  0.44124229  0.50007883    -0.06400
C1085       C  0.83002115  0.44365193  0.47426861    -0.17600
C1086       C  0.83724496  0.42900070  0.92683057     0.10800
S1087       S  0.70530071  0.92391464  0.50080207    -0.32600
S1088       S  0.88021998  0.44989903  0.89197617    -0.32600
H1089       H  0.90359980  0.46013104  0.92671901     0.28800
H1090       H  0.70420286  0.97287222  0.51461827     0.28800
H1091       H  0.75028196  0.87447215  0.91864750     0.19400
H1092       H  0.85309614  0.46194052  0.48994991     0.19400
C1093       C  0.70159702  0.58802812  0.74419924    -0.06400
C1094       C  0.72007153  0.12437058  0.76788649    -0.17600
C1095       C  0.70273895  0.14109053  0.81398796     0.10800
C1096       C  0.67145234  0.61613513  0.83482564    -0.06400
C1097       C  0.64284997  0.60128471  0.80777988    -0.17600
C1098       C  0.65959073  0.58015880  0.76269996     0.10800
S1099       S  0.73036890  0.17844747  0.84922083    -0.32600
S1100       S  0.63059656  0.53681564  0.73537748    -0.32600
H1101       H  0.59439018  0.54327502  0.76934351     0.28800
H1102       H  0.75678476  0.19297765  0.81290042     0.28800
H1103       H  0.75005745  0.13458330  0.75313838     0.19400
H1104       H  0.61326622  0.59189889  0.82458697     0.19400
C1105       C  0.52703535  0.19679546  0.04138600    -0.06400
C1106       C  0.52749477  0.14850140  0.52303792    -0.17600
C1107       C  0.99755129  0.12154917  0.54380335     0.10800
C1108       C  0.96453347  0.14625834  0.57682278    -0.06400
C1109       C  0.97679811  0.18259797  0.10647960    -0.17600
C1110       C  0.50535795  0.21175670  0.08718971     0.10800
S1111       S  0.99158301  0.06300039  0.51716877    -0.32600
S1112       S  0.51049320  0.26700861  0.12119162    -0.32600
H1113       H  0.49193739  0.29365907  0.09310625     0.28800
H1114       H  0.03100756  0.05605834  0.48834313     0.28800
H1115       H  0.54794277  0.13333470  0.49124655     0.19400
H1116       H  0.95676904  0.19580910  0.13912272     0.19400
C1117       C  0.81544324  0.29787487  0.46537085    -0.06400
C1118       C  0.79000299  0.32594506  0.50291223    -0.17600
C1119       C  0.74749529  0.32192201  0.51011326     0.10800
C1120       C  0.73041052  0.30075341  0.97301139    -0.06400
C1121       C  0.75613484  0.28373031  0.93063192    -0.17600
C1122       C  0.79892170  0.27887718  0.92738639     0.10800
S1123       S  0.71793323  0.33790484  0.56774351    -0.32600
S1124       S  0.82818736  0.23693011  0.88034964    -0.32600
H1125       H  0.86696453  0.23801572  0.89427664     0.28800
H1126       H  0.74914662  0.35954650  0.58765135     0.28800
H1127       H  0.80397912  0.34079444  0.53120999     0.19400
H1128       H  0.74299474  0.26816781  0.90194575     0.19400
C1129       C  0.05917152  0.41311258  0.63735180    -0.06400
C1130       C  0.02527950  0.42751077  0.61789611    -0.17600
C1131       C  0.01203559  0.97570486  0.62566831     0.10800
C1132       C  0.03824022  0.00694215  0.64467953    -0.06400
C1133       C  0.58038202  0.99074815  0.64228737    -0.17600
C1134       C  0.59140281  0.44235721  0.63755819     0.10800
S1135       S  0.95956314  0.99361604  0.61992493    -0.32600
S1136       S  0.64096502  0.41957403  0.64792629    -0.32600
H1137       H  0.65883859  0.46240081  0.65013984     0.28800
H1138       H  0.94583862  0.00744811  0.66722642     0.28800
H1139       H  0.00279069  0.40276966  0.61073235     0.19400
H1140       H  0.60224811  0.01526374  0.65144417     0.19400
C1141       C  0.95772470  0.23944393  0.82646049    -0.06400
C1142       C  0.91827838  0.25807206  0.82046758    -0.17600
C1143       C  0.90365781  0.30506974  0.83829884     0.10800
C1144       C  0.93203033  0.33373314  0.85619913    -0.06400
C1145       C  0.45964200  0.31107110  0.87923750    -0.17600
C1146       C  0.47573854  0.26403337  0.86136364     0.10800
S1147       S  0.85949424  0.32974752  0.81806182    -0.32600
S1148       S  0.52048418  0.23967291  0.88053721    -0.32600
H1149       H  0.54623050  0.23439475  0.83723726     0.28800
H1150       H  0.87002309  0.37628872  0.82372853     0.28800
H1151       H  0.90107442  0.23804646  0.79780736     0.19400
H1152       H  0.47661375  0.33225029  0.90126375     0.19400
C1153       C  0.88266149  0.62188986  0.40815998     0.02800
C1154       C  0.84493848  0.60205080  0.40542575    -0.13300
C1155       C  0.83678062  0.57922748  0.36354927     0.00300
C1156       C  0.86763854  0.57643028  0.32342182    -0.11900
C1157       C  0.90618483  0.59519638  0.32598308     0.02800
C1158       C  0.91303318  0.61752908  0.36852130    -0.11300
H1159       H  0.82137618  0.60531941  0.43604793     0.08400
H1160       H  0.86207562  0.55921834  0.29084328     0.05900
H1161       H  0.94189943  0.63358372  0.37038185     0.05800
C1162       C  0.84451725  0.91139727  0.15140902     0.02800
C1163       C  0.87564161  0.91597593  0.17946284    -0.13300
C1164       C  0.90598077  0.87733923  0.17870657     0.00300
C1165       C  0.90556666  0.83550103  0.14806072    -0.11900
C1166       C  0.87696203  0.83088304  0.11862945     0.02800
C1167       C  0.84583661  0.86820167  0.12157778    -0.11300
H1168       H  0.87583360  0.94887524  0.20200083     0.08400
H1169       H  0.92778518  0.80566531  0.14677042     0.05900
H1170       H  0.82340432  0.86439656  0.09905567     0.05800
C1171       C  0.58799351  0.88070533  0.33352925     0.02800
C1172       C  0.58415676  0.84865002  0.36494864    -0.13300
C1173       C  0.60556405  0.85287614  0.40206128     0.00300
C1174       C  0.63292545  0.88923031  0.40602382    -0.11900
C1175       C  0.63944223  0.92009939  0.37330111     0.02800
C1176       C  0.61587917  0.91576768  0.33789210    -0.11300
H1177       H  0.56291167  0.82174121  0.36167707     0.08400
H1178       H  0.65091953  0.89168779  0.43312901     0.05900
H1179       H  0.61937970  0.93979656  0.31335275     0.05800
C1180       C  0.60266280  0.64970307  0.14991972     0.02800
C1181       C  0.60521377  0.68112948  0.11867843    -0.13300
C1182       C  0.63877580  0.67634727  0.08133990     0.00300
C1183       C  0.67117495  0.63916858  0.07596719    -0.11900
C1184       C  0.66951826  0.60716884  0.10760233     0.02800
C1185       C  0.63509125  0.61329499  0.14395775    -0.11300
H1186       H  0.58025819  0.70875671  0.12277349     0.08400
H1187       H  0.69708423  0.63509647  0.04750246     0.05900
H1188       H  0.63329129  0.58888092  0.16776407     0.05800
O1189       O  0.53668832  0.55476283  0.21554309    -0.74700
O1190       O  0.50733732  0.67008556  0.29998298    -0.74800
O1191       O  0.97767595  0.58691544  0.29250172    -0.74800
O1192       O  0.56892898  0.63600787  0.22299372    -0.74900
O1193       O  0.52771185  0.65769098  0.17650446    -0.74800
O1194       O  0.93353944  0.61239561  0.25056850    -0.74800
O1195       O  0.96721499  0.69361281  0.25326961    -0.74800
O1196       O  0.99266731  0.57733205  0.17213711    -0.74800
Ni1197     Ni  0.52420282  0.61115500  0.25924907     1.25400
Ni1198     Ni  0.97874569  0.63626326  0.21152607     1.25400
C1199       C  0.02139675  0.54841972  0.17888101     0.87400
C1200       C  0.97919993  0.69925183  0.29181431     0.87400
C1201       C  0.94031508  0.59574347  0.28628750     0.87400
C1202       C  0.56449574  0.64978986  0.18550224     0.87600
O1203       O  0.64328557  0.69260179  0.00435847    -0.74700
O1204       O  0.61129599  0.77350630  0.42071983    -0.74800
O1205       O  0.68001294  0.75266244  0.45277019    -0.74800
O1206       O  0.57300494  0.71039564  0.47503927    -0.74900
O1207       O  0.55321614  0.77078071  0.03115428    -0.74800
O1208       O  0.66067308  0.81194629  0.01092598    -0.74800
O1209       O  0.59344142  0.83329303  0.47835503    -0.74800
O1210       O  0.62218632  0.75210321  0.06193370    -0.74800
Ni1211     Ni  0.62721126  0.73039273  0.46066249     1.25400
Ni1212     Ni  0.60624864  0.79437721  0.02238983     1.25400
C1213       C  0.63618567  0.70875708  0.04733532     0.87400
C1214       C  0.60206730  0.81803051  0.43521510     0.87400
C1215       C  0.68812569  0.78844296  0.47897343     0.87400
C1216       C  0.55056092  0.72820775  0.51369222     0.87600
O1217       O  0.82129389  0.99161667  0.14218822    -0.74700
O1218       O  0.74187539  0.57699287  0.10199226    -0.74800
O1219       O  0.76068500  0.56830333  0.18256418    -0.74800
O1220       O  0.79903138  0.50116039  0.06087551    -0.74900
O1221       O  0.74874195  0.95373082  0.07319730    -0.74800
O1222       O  0.71542461  0.01532363  0.19414557    -0.74800
O1223       O  0.69287273  0.52865355  0.11680991    -0.74800
O1224       O  0.77340436  0.94077076  0.15035291    -0.74800
Ni1225     Ni  0.78291858  0.53606568  0.12163119     1.25400
Ni1226     Ni  0.73118761  0.98279694  0.13408193     1.25400
C1227       C  0.81140215  0.95052794  0.14952749     0.87400
C1228       C  0.70336734  0.56855667  0.10671553     0.87400
C1229       C  0.72754263  0.05567580  0.20539585     0.87400
C1230       C  0.77910571  0.96665851  0.04698143     0.87600
O1231       O  0.96525746  0.84179797  0.20426656    -0.74700
O1232       O  0.55577719  0.84260732  0.27276705    -0.74800
O1233       O  0.47672615  0.82406414  0.28669381    -0.74800
O1234       O  0.54609260  0.85704296  0.18619608    -0.74900
O1235       O  0.02466634  0.93260121  0.21423948    -0.74800
O1236       O  0.95586404  0.89850319  0.31891182    -0.74800
O1237       O  0.53608670  0.91849051  0.29996519    -0.74800
O1238       O  0.94369738  0.91637375  0.23449834    -0.74800
Ni1239     Ni  0.51179164  0.83887676  0.23651673     1.25400
Ni1240     Ni  0.98961849  0.91942800  0.26792240     1.25400
C1241       C  0.93965651  0.87883498  0.20756444     0.87400
C1242       C  0.55930015  0.88063653  0.29965398     0.87400
C1243       C  0.95576708  0.85417063  0.31930973     0.87400
C1244       C  0.04405047  0.90014903  0.18188991     0.87600
O1245       O  0.67814025  0.98146589  0.40855058    -0.74700
O1246       O  0.76899561  0.56250896  0.40004355    -0.74800
O1247       O  0.68770980  0.57244487  0.39174952    -0.74800
O1248       O  0.75964811  0.47797582  0.41826292    -0.74900
O1249       O  0.77891756  0.94181490  0.34609199    -0.74800
O1250       O  0.71186439  0.04274066  0.31855165    -0.74800
O1251       O  0.79223426  0.52821084  0.32800774    -0.74800
O1252       O  0.69792124  0.95399098  0.33437771    -0.74800
Ni1253     Ni  0.72254828  0.52449570  0.40726238     1.25400
Ni1254     Ni  0.74554788  0.99073812  0.32892441     1.25400
C1255       C  0.67331213  0.95366300  0.37244528     0.87400
C1256       C  0.79711123  0.55620028  0.36348931     0.87400
C1257       C  0.69058154  0.07497002  0.34971686     0.87400
C1258       C  0.78123949  0.94553559  0.38821949     0.87600
O1259       O  0.91546063  0.68253962  0.44794452    -0.74700
O1260       O  0.91281648  0.78186338  0.04946482    -0.74800
O1261       O  0.94775478  0.69149112  0.52393346    -0.74800
O1262       O  0.88239718  0.77131826  0.47235660    -0.74900
O1263       O  0.82712642  0.74005028  0.00726373    -0.74800
O1264       O  0.89393771  0.66744870  0.06772006    -0.74800
O1265       O  0.85494093  0.75750589  0.08596349    -0.74800
O1266       O  0.86271254  0.65271978  0.48814191    -0.74800
Ni1267     Ni  0.91693354  0.73239626  0.49733030     1.25400
Ni1268     Ni  0.85768693  0.70323974  0.03882075     1.25400
C1269       C  0.88787768  0.65294955  0.45046547     0.87400
C1270       C  0.88174435  0.78794357  0.08304845     0.87400
C1271       C  0.93318566  0.66782252  0.05461976     0.87400
C1272       C  0.84357682  0.76767957  0.98121175     0.87600
C1273       C  0.80447436  0.91078501  0.40681590    -0.06400
C1274       C  0.77393272  0.39139560  0.43467600    -0.17600
C1275       C  0.76104175  0.41578801  0.97922605     0.10800
C1276       C  0.79030061  0.94124205  0.00007938    -0.06400
C1277       C  0.83002042  0.94365120  0.97426921    -0.17600
C1278       C  0.83724386  0.92899876  0.42683095     0.10800
S1279       S  0.70530200  0.42391515  0.00080103    -0.32600
S1280       S  0.88021907  0.94989669  0.39197654    -0.32600
H1281       H  0.90359926  0.96012766  0.42671921     0.28800
H1282       H  0.70420386  0.47287276  0.01461727     0.28800
H1283       H  0.75028336  0.37447180  0.41864682     0.19400
H1284       H  0.85309550  0.96193961  0.98995052     0.19400
C1285       C  0.70159684  0.08802796  0.24419980    -0.06400
C1286       C  0.72007107  0.62437071  0.26788685    -0.17600
C1287       C  0.70273801  0.64109049  0.31398822     0.10800
C1288       C  0.67145241  0.11613508  0.33482621    -0.06400
C1289       C  0.64284990  0.10128479  0.30778058    -0.17600
C1290       C  0.65959055  0.08015871  0.26270069     0.10800
S1291       S  0.73036703  0.67844821  0.34922152    -0.32600
S1292       S  0.63059626  0.03681547  0.23537845    -0.32600
H1293       H  0.59439007  0.04327468  0.26934475     0.28800
H1294       H  0.75678330  0.69297830  0.31290135     0.28800
H1295       H  0.75005707  0.63458368  0.25313909     0.19400
H1296       H  0.61326613  0.09189914  0.32458779     0.19400
C1297       C  0.52703522  0.69679456  0.54138502    -0.06400
C1298       C  0.52749449  0.64850154  0.02303733    -0.17600
C1299       C  0.99755118  0.62154917  0.04380271     0.10800
C1300       C  0.96453324  0.64625838  0.07682203    -0.06400
C1301       C  0.97679814  0.68259666  0.60647851    -0.17600
C1302       C  0.50535780  0.71175557  0.58718878     0.10800
S1303       S  0.99158322  0.56300011  0.01716849    -0.32600
S1304       S  0.51049295  0.76700739  0.62119090    -0.32600
H1305       H  0.49193743  0.79365796  0.59310541     0.28800
H1306       H  0.03100784  0.55605813  0.98834298     0.28800
H1307       H  0.54794266  0.63333476  0.99124591     0.19400
H1308       H  0.95676912  0.69580765  0.63912173     0.19400
C1309       C  0.81544313  0.79787465  0.96536978    -0.06400
C1310       C  0.79000282  0.82594458  0.00291136    -0.17600
C1311       C  0.74749517  0.82192112  0.01011239     0.10800
C1312       C  0.73041041  0.80075287  0.47301057    -0.06400
C1313       C  0.75613477  0.78373016  0.43063107    -0.17600
C1314       C  0.79892162  0.77887708  0.42738568     0.10800
S1315       S  0.71793333  0.83790240  0.06774289    -0.32600
S1316       S  0.82818734  0.73693025  0.38034883    -0.32600
H1317       H  0.86696449  0.73801601  0.39427584     0.28800
H1318       H  0.74914602  0.85954599  0.08765039     0.28800
H1319       H  0.80397887  0.84079368  0.03120918     0.19400
H1320       H  0.74299475  0.76816795  0.40194480     0.19400
C1321       C  0.05917137  0.91311305  0.13735100    -0.06400
C1322       C  0.02527953  0.92751172  0.11789527    -0.17600
C1323       C  0.01203504  0.47570386  0.12566823     0.10800
C1324       C  0.03823966  0.50694165  0.14467877    -0.06400
C1325       C  0.58038163  0.49074796  0.14228670    -0.17600
C1326       C  0.59140278  0.94235753  0.13755794     0.10800
S1327       S  0.95956256  0.49361459  0.11992458    -0.32600
S1328       S  0.64096497  0.91957368  0.14792559    -0.32600
H1329       H  0.65883837  0.96240059  0.15014090     0.28800
H1330       H  0.94583799  0.50744772  0.16722593     0.28800
H1331       H  0.00279075  0.90277071  0.11073096     0.19400
H1332       H  0.60224767  0.51526385  0.15144304     0.19400
C1333       C  0.95772448  0.73944378  0.32645932    -0.06400
C1334       C  0.91827818  0.75807207  0.32046653    -0.17600
C1335       C  0.90365774  0.80506974  0.33829796     0.10800
C1336       C  0.93203039  0.83373294  0.35619819    -0.06400
C1337       C  0.45964197  0.81107079  0.37923652    -0.17600
C1338       C  0.47573840  0.76403305  0.36136252     0.10800
S1339       S  0.85949402  0.82974779  0.31806140    -0.32600
S1340       S  0.52048403  0.73967236  0.38053590    -0.32600
H1341       H  0.54623026  0.73439455  0.33723594     0.28800
H1342       H  0.87002342  0.87628879  0.32372718     0.28800
H1343       H  0.90107410  0.73804663  0.29780635     0.19400
H1344       H  0.47661375  0.83224991  0.40126278     0.19400
C1345       C  0.88266171  0.62189006  0.90816000     0.02800
C1346       C  0.84493869  0.60205099  0.90542579    -0.13300
C1347       C  0.83678089  0.57922769  0.86354927     0.00300
C1348       C  0.86763884  0.57643038  0.82342185    -0.11900
C1349       C  0.90618514  0.59519645  0.82598314     0.02800
C1350       C  0.91303347  0.61752920  0.86852137    -0.11300
H1351       H  0.82137638  0.60531963  0.93604788     0.08400
H1352       H  0.86207589  0.55921848  0.79084335     0.05900
H1353       H  0.94189967  0.63358386  0.87038190     0.05800
C1354       C  0.84451734  0.91139688  0.65140899     0.02800
C1355       C  0.87564175  0.91597558  0.67946274    -0.13300
C1356       C  0.90598081  0.87733889  0.67870665     0.00300
C1357       C  0.90556667  0.83550056  0.64806095    -0.11900
C1358       C  0.87696213  0.83088261  0.61862955     0.02800
C1359       C  0.84583674  0.86820122  0.62157782    -0.11300
H1360       H  0.87583381  0.94887507  0.70200061     0.08400
H1361       H  0.92778506  0.80566487  0.64677079     0.05900
H1362       H  0.82340441  0.86439602  0.59905567     0.05800
C1363       C  0.58799372  0.88070563  0.83352923     0.02800
C1364       C  0.58415698  0.84865026  0.86494862    -0.13300
C1365       C  0.60556424  0.85287651  0.90206132     0.00300
C1366       C  0.63292557  0.88923072  0.90602389    -0.11900
C1367       C  0.63944235  0.92009978  0.87330114     0.02800
C1368       C  0.61587933  0.91576800  0.83789205    -0.11300
H1369       H  0.56291208  0.82174150  0.86167703     0.08400
H1370       H  0.65091963  0.89168829  0.93312911     0.05900
H1371       H  0.61937983  0.93979682  0.81335271     0.05800
C1372       C  0.60266310  0.64970307  0.64991974     0.02800
C1373       C  0.60521417  0.68112934  0.61867837    -0.13300
C1374       C  0.63877606  0.67634706  0.58133976     0.00300
C1375       C  0.67117511  0.63916818  0.57596699    -0.11900
C1376       C  0.66951835  0.60716852  0.60760219     0.02800
C1377       C  0.63509145  0.61329483  0.64395773    -0.11300
H1378       H  0.58025855  0.70875686  0.62277351     0.08400
H1379       H  0.69708434  0.63509590  0.54750221     0.05900
H1380       H  0.63329148  0.58888090  0.66776414     0.05800
O1381       O  0.53668869  0.55476313  0.71554329    -0.74700
O1382       O  0.50733753  0.67008585  0.79998318    -0.74800
O1383       O  0.97767623  0.58691577  0.79250186    -0.74800
O1384       O  0.56892938  0.63600817  0.72299395    -0.74900
O1385       O  0.52771223  0.65769112  0.67650465    -0.74800
O1386       O  0.93353970  0.61239577  0.75056856    -0.74800
O1387       O  0.96721535  0.69361301  0.75326971    -0.74800
O1388       O  0.99266768  0.57733219  0.67213732    -0.74800
Ni1389     Ni  0.52420318  0.61115530  0.75924928     1.25400
Ni1390     Ni  0.97874603  0.63626343  0.71152619     1.25400
C1391       C  0.02139715  0.54841992  0.67888127     0.87400
C1392       C  0.97920026  0.69925208  0.79181445     0.87400
C1393       C  0.94031536  0.59574368  0.78628758     0.87400
C1394       C  0.56449613  0.64979001  0.68550241     0.87600
O1395       O  0.64328588  0.69260159  0.50435832    -0.74700
O1396       O  0.61129595  0.77350659  0.92071985    -0.74800
O1397       O  0.68001284  0.75266255  0.95277031    -0.74800
O1398       O  0.57300472  0.71039607  0.97503930    -0.74900
O1399       O  0.55321624  0.77078021  0.53115432    -0.74800
O1400       O  0.66067309  0.81194612  0.51092590    -0.74800
O1401       O  0.59344160  0.83329335  0.97835504    -0.74800
O1402       O  0.62218655  0.75210297  0.56193356    -0.74800
Ni1403     Ni  0.62721109  0.73039297  0.96066258     1.25400
Ni1404     Ni  0.60624867  0.79437692  0.52238979     1.25400
C1405       C  0.63618598  0.70875685  0.54733516     0.87400
C1406       C  0.60206742  0.81803081  0.93521511     0.87400
C1407       C  0.68812564  0.78844310  0.97897349     0.87400
C1408       C  0.55056075  0.72820827  0.01369227     0.87600
O1409       O  0.82129405  0.99161622  0.64218800    -0.74700
O1410       O  0.74187545  0.57699245  0.60199209    -0.74800
O1411       O  0.76068507  0.56830315  0.68256411    -0.74800
O1412       O  0.79903133  0.50115986  0.56087554    -0.74900
O1413       O  0.74874194  0.95373037  0.57319701    -0.74800
O1414       O  0.71542480  0.01532329  0.69414533    -0.74800
O1415       O  0.69287274  0.52865326  0.61680994    -0.74800
O1416       O  0.77340448  0.94077033  0.65035265    -0.74800
Ni1417     Ni  0.78291862  0.53606534  0.62163115     1.25400
Ni1418     Ni  0.73118772  0.98279653  0.63408166     1.25400
C1419       C  0.81140228  0.95052751  0.64952732     0.87400
C1420       C  0.70336738  0.56855631  0.60671542     0.87400
C1421       C  0.72754283  0.05567547  0.70539552     0.87400
C1422       C  0.77910576  0.96665799  0.54698117     0.87600
O1423       O  0.96525755  0.84179768  0.70426666    -0.74700
O1424       O  0.55577746  0.84260742  0.77276705    -0.74800
O1425       O  0.47672637  0.82406429  0.78669405    -0.74800
O1426       O  0.54609276  0.85704270  0.68619602    -0.74900
O1427       O  0.02466656  0.93260101  0.71423923    -0.74800
O1428       O  0.95586419  0.89850339  0.81891180    -0.74800
O1429       O  0.53608692  0.91849064  0.79996500    -0.74800
O1430       O  0.94369759  0.91637357  0.73449810    -0.74800
Ni1431     Ni  0.51179184  0.83887666  0.73651681     1.25400
Ni1432     Ni  0.98961869  0.91942799  0.76792221     1.25400
C1433       C  0.93965664  0.87883466  0.70756439     0.87400
C1434       C  0.55930039  0.88063669  0.79965389     0.87400
C1435       C  0.95576723  0.85417084  0.81930988     0.87400
C1436       C  0.04405065  0.90014874  0.68188973     0.87600
O1437       O  0.67814033  0.98146634  0.90855052    -0.74700
O1438       O  0.76899590  0.56250918  0.90004355    -0.74800
O1439       O  0.68771022  0.57244510  0.89174954    -0.74800
O1440       O  0.75964838  0.47797597  0.91826295    -0.74900
O1441       O  0.77891770  0.94181501  0.84609204    -0.74800
O1442       O  0.71186476  0.04274085  0.81855145    -0.74800
O1443       O  0.79223457  0.52821109  0.82800774    -0.74800
O1444       O  0.69792138  0.95399126  0.83437770    -0.74800
Ni1445     Ni  0.72254860  0.52449589  0.90726240     1.25400
Ni1446     Ni  0.74554810  0.99073826  0.82892434     1.25400
C1447       C  0.67331224  0.95366339  0.87244526     0.87400
C1448       C  0.79711150  0.55620053  0.86348930     0.87400
C1449       C  0.69058188  0.07497027  0.84971656     0.87400
C1450       C  0.78123957  0.94553581  0.88821957     0.87600
O1451       O  0.91546068  0.68254001  0.94794445    -0.74700
O1452       O  0.91281660  0.78186285  0.54946496    -0.74800
O1453       O  0.94775480  0.69149167  0.02393346    -0.74800
O1454       O  0.88239725  0.77131869  0.97235632    -0.74900
O1455       O  0.82712629  0.74004992  0.50726398    -0.74800
O1456       O  0.89393772  0.66744814  0.56772008    -0.74800
O1457       O  0.85494106  0.75750541  0.58596369    -0.74800
O1458       O  0.86271264  0.65272014  0.98814186    -0.74800
Ni1459     Ni  0.91693356  0.73239674  0.99733018     1.25400
Ni1460     Ni  0.85768689  0.70323930  0.53882090     1.25400
C1461       C  0.88787778  0.65294988  0.95046544     0.87400
C1462       C  0.88174449  0.78794307  0.58304862     0.87400
C1463       C  0.93318567  0.66782193  0.55461974     0.87400
C1464       C  0.84357675  0.76767916  0.48121195     0.87600
C1465       C  0.80447434  0.91078528  0.90681618    -0.06400
C1466       C  0.77393347  0.39139570  0.93467591    -0.17600
C1467       C  0.76104117  0.41578788  0.47922617     0.10800
C1468       C  0.79030076  0.94124146  0.50007914    -0.06400
C1469       C  0.83002056  0.94365067  0.47426895    -0.17600
C1470       C  0.83724383  0.92899907  0.92683126     0.10800
S1471       S  0.70530148  0.42391536  0.50080136    -0.32600
S1472       S  0.88021937  0.94989651  0.89197690    -0.32600
H1473       H  0.90359942  0.96012754  0.92671970     0.28800
H1474       H  0.70420366  0.47287293  0.51461761     0.28800
H1475       H  0.75028428  0.37447167  0.91864671     0.19400
H1476       H  0.85309565  0.96193905  0.48995022     0.19400
C1477       C  0.70159704  0.08802783  0.74419937    -0.06400
C1478       C  0.72007137  0.62437082  0.76788670    -0.17600
C1479       C  0.70273842  0.64109065  0.81398812     0.10800
C1480       C  0.67145280  0.11613526  0.83482575    -0.06400
C1481       C  0.64285022  0.10128491  0.80778024    -0.17600
C1482       C  0.65959077  0.08015867  0.76270037     0.10800
S1483       S  0.73036759  0.67844836  0.84922124    -0.32600
S1484       S  0.63059645  0.03681528  0.73537844    -0.32600
H1485       H  0.59439042  0.04327441  0.76934495     0.28800
H1486       H  0.75678379  0.69297835  0.81290097     0.28800
H1487       H  0.75005724  0.63458371  0.75313887     0.19400
H1488       H  0.61326649  0.09189933  0.82458758     0.19400
C1489       C  0.52703512  0.69679510  0.04138513    -0.06400
C1490       C  0.52749455  0.64850101  0.52303708    -0.17600
C1491       C  0.99755124  0.62154861  0.54380241     0.10800
C1492       C  0.96453335  0.64625772  0.57682185    -0.06400
C1493       C  0.97679795  0.68259743  0.10647861    -0.17600
C1494       C  0.50535765  0.71175623  0.08718885     0.10800
S1495       S  0.99158318  0.56299974  0.51716782    -0.32600
S1496       S  0.51049301  0.76700797  0.12119092    -0.32600
H1497       H  0.49193732  0.79365854  0.09310556     0.28800
H1498       H  0.03100763  0.55605794  0.48834199     0.28800
H1499       H  0.54794267  0.63333429  0.49124565     0.19400
H1500       H  0.95676886  0.69580851  0.13912180     0.19400
C1501       C  0.81544317  0.79787432  0.46536990    -0.06400
C1502       C  0.79000288  0.82594431  0.50291144    -0.17600
C1503       C  0.74749521  0.82192096  0.51011244     0.10800
C1504       C  0.73041036  0.80075301  0.97301056    -0.06400
C1505       C  0.75613471  0.78373028  0.93063105    -0.17600
C1506       C  0.79892157  0.77887730  0.92738561     0.10800
S1507       S  0.71793326  0.83790253  0.56774286    -0.32600
S1508       S  0.82818742  0.73693075  0.88034859    -0.32600
H1509       H  0.86696452  0.73801614  0.89427578     0.28800
H1510       H  0.74914605  0.85954571  0.58765050     0.28800
H1511       H  0.80397895  0.84079339  0.53120928     0.19400
H1512       H  0.74299466  0.76816806  0.90194480     0.19400
C1513       C  0.05917149  0.91311266  0.63735075    -0.06400
C1514       C  0.02527954  0.92751146  0.61789518    -0.17600
C1515       C  0.01203541  0.47570407  0.62566854     0.10800
C1516       C  0.03824005  0.50694184  0.64467910    -0.06400
C1517       C  0.58038180  0.49074813  0.64228704    -0.17600
C1518       C  0.59140288  0.94235709  0.63755752     0.10800
S1519       S  0.95956294  0.49361483  0.61992495    -0.32600
S1520       S  0.64096510  0.91957322  0.64792495    -0.32600
H1521       H  0.65883834  0.96240025  0.65014084     0.28800
H1522       H  0.94583839  0.50744760  0.66722635     0.28800
H1523       H  0.00279071  0.90277061  0.61073095     0.19400
H1524       H  0.60224779  0.51526407  0.65144341     0.19400
C1525       C  0.95772471  0.73944403  0.82645940    -0.06400
C1526       C  0.91827838  0.75807228  0.82046661    -0.17600
C1527       C  0.90365785  0.80506993  0.83829815     0.10800
C1528       C  0.93203050  0.83373317  0.85619837    -0.06400
C1529       C  0.45964206  0.81107101  0.87923665    -0.17600
C1530       C  0.47573854  0.76403331  0.86136260     0.10800
S1531       S  0.85949421  0.82974798  0.81806145    -0.32600
S1532       S  0.52048423  0.73967278  0.88053591    -0.32600
H1533       H  0.54623041  0.73439504  0.83723592     0.28800
H1534       H  0.87002378  0.87628892  0.82372690     0.28800
H1535       H  0.90107437  0.73804685  0.79780632     0.19400
H1536       H  0.47661390  0.83225008  0.90126288     0.19400
loop_ 
_geom_bond_atom_site_label_1 
_geom_bond_atom_site_label_2 
_geom_bond_distance 
_geom_bond_site_symmetry_2 
_ccdc_geom_bond_type 
C1            C2   1.403       .  A
C1            C6   1.399       .  A
C1          C117   1.488       .  S
C2            C3   1.411       .  A
C2            H7   1.083       .  S
C3            C4   1.423       .  A
C3          C104   1.496       .  S
C4            C5   1.413       .  A
C4            H8   1.083       .  S
C5            C6   1.408       .  A
C5           C49   1.491       .  S
C6            H9   1.085       .  S
C10          C11   1.430       .  A
C10          C15   1.417       .  A
C10          C75   1.522       .  S
C11          C12   1.433       .  A
C11          H16   1.083       .  S
C12          C13   1.409       .  A
C12          C89   1.513       .  S
C13          C14   1.394       .  A
C13          H17   1.078       .  S
C14          C15   1.410       .  A
C14         C118   1.493       .  S
C15          H18   1.081       .  S
C19          C20   1.415       .  A
C19          C24   1.413       .  A
C19          C90   1.499       .  S
C20          C21   1.412       .  A
C20          H25   1.081       .  S
C21          C22   1.428       .  A
C21          C62   1.516       .  S
C22          C23   1.424       .  A
C22          H26   1.082       .  S
C23          C24   1.415       .  A
C23         C103   1.519       .  S
C24          H27   1.084       .  S
C28          C29   1.397       .  A
C28          C33   1.407       .  A
C28          C50   1.498       .  S
C29          C30   1.413       .  A
C29          H34   1.077       .  S
C30          C31   1.424       .  A
C30          C61   1.495       .  S
C31          C32   1.420       .  A
C31          H35   1.083       .  S
C32          C33   1.410       .  A
C32          C76   1.507       .  S
C33          H36   1.075       .  S
O37         Ni45   1.906       .  S
O37         C815   1.283       .  A
O38         Ni45   1.928       .  S
O38         C816   1.282   1_455  A
O39        Ni813   1.906       .  S
O39          C49   1.279       .  A
O40         Ni45   1.916       .  S
O40          C50   1.280       .  A
O41        Ni814   1.950   1_455  S
O41          C50   1.288       .  A
O42         Ni46   1.955       .  S
O42          C49   1.288       .  A
O43         Ni46   1.896       .  S
O43          C48   1.280       .  A
O44         Ni46   1.901       .  S
O44          C47   1.274       .  A
Ni45        O807   1.906   1_455  S
Ni45       Ni814   2.385   1_455  S
Ni46        O809   1.950       .  S
Ni46       Ni813   2.385       .  S
C47         C172   1.464       .  S
C47         O805   1.283       .  A
C48         C181   1.484       .  S
C48         O806   1.282       .  A
O51        Ni251   1.945   1_554  S
O51          C61   1.285       .  A
O52         Ni59   1.959       .  S
O52          C62   1.290       .  A
O53         Ni59   1.870       .  S
O53          C63   1.275       .  A
O54         Ni59   1.898       .  S
O54          C64   1.279       .  A
O55         Ni60   1.894       .  S
O55         C256   1.277       .  A
O56         Ni60   1.870       .  S
O56         C255   1.271   1_554  A
O57        Ni252   1.940       .  S
O57          C62   1.285       .  A
O58         Ni60   1.933       .  S
O58          C61   1.286       .  A
Ni59        O243   1.945       .  S
Ni59       Ni252   2.388       .  S
Ni60        O249   1.940   1_554  S
Ni60       Ni251   2.388   1_554  S
C63         C160   1.437       .  S
C63         O248   1.271       .  A
C64         C145   1.486       .  S
C64         O247   1.277       .  A
O65        Ni457   1.969       .  S
O65          C75   1.290       .  A
O66         Ni73   1.949       .  S
O66          C76   1.285       .  A
O67         Ni73   1.925       .  S
O67         C461   1.285       .  A
O68         Ni73   1.922       .  S
O68         C462   1.284   1_545  A
O69         Ni74   1.875       .  S
O69          C78   1.271       .  A
O70         Ni74   1.879       .  S
O70          C77   1.272       .  A
O71        Ni458   1.945   1_545  S
O71          C76   1.287       .  A
O72         Ni74   1.946       .  S
O72          C75   1.288       .  A
Ni73        O449   1.969   1_545  S
Ni73       Ni458   2.380   1_545  S
Ni74        O455   1.945       .  S
Ni74       Ni457   2.380       .  S
C77         C133   1.477       .  S
C77         O451   1.285       .  A
C78         C124   1.466       .  S
C78         O452   1.284       .  A
O79        Ni855   1.942       .  S
O79          C89   1.291       .  A
O80         Ni87   1.947       .  S
O80          C90   1.288       .  A
O81         Ni87   1.856   1_655  S
O81         C859   1.274       .  A
O82         Ni87   1.888       .  S
O82         C860   1.267       .  A
O83         Ni88   1.918       .  S
O83          C92   1.289       .  A
O84         Ni88   1.931       .  S
O84          C91   1.281       .  A
O85        Ni856   1.934   1_455  S
O85          C90   1.283       .  A
O86         Ni88   1.944       .  S
O86          C89   1.282       .  A
Ni87        O847   1.942   1_455  S
Ni87       Ni856   2.387   1_455  S
Ni88        O853   1.934       .  S
Ni88       Ni855   2.387       .  S
C91         C184   1.465       .  S
C91         O849   1.274       .  A
C92         C169   1.461       .  S
C92         O850   1.267       .  A
O93        Ni485   1.972       .  S
O93         C103   1.292       .  A
O94        Ni101   1.933       .  S
O94         C104   1.288       .  A
O95        Ni101   1.892       .  S
O95         C489   1.268       .  A
O96        Ni101   1.850   1_565  S
O96         C490   1.277       .  A
O97        Ni102   1.909       .  S
O97         C106   1.274       .  A
O98        Ni102   1.893       .  S
O98         C105   1.287       .  A
O99        Ni486   1.927   1_545  S
O99         C104   1.281       .  A
O100       Ni102   1.939       .  S
O100        C103   1.285       .  A
Ni101       O477   1.972   1_545  S
Ni101      Ni486   2.387   1_545  S
Ni102       O483   1.927       .  S
Ni102      Ni485   2.387       .  S
C105        C136   1.467       .  S
C105        O479   1.268       .  A
C106        C121   1.450       .  S
C106        O480   1.277       .  A
O107       Ni115   1.920       .  S
O107        C117   1.283       .  A
O108       Ni307   1.939   1_554  S
O108        C118   1.286       .  A
O109       Ni115   1.855       .  S
O109        C311   1.277       .  A
O110       Ni115   1.861       .  S
O110        C312   1.264       .  A
O111       Ni116   1.873       .  S
O111        C120   1.281   1_554  A
O112       Ni116   1.917       .  S
O112        C119   1.275       .  A
O113       Ni116   1.937       .  S
O113        C118   1.283       .  A
O114       Ni308   1.924       .  S
O114        C117   1.284       .  A
Ni115       O300   1.939       .  S
Ni115      Ni308   2.392       .  S
Ni116       O306   1.924   1_554  S
Ni116      Ni307   2.392   1_554  S
C119        C148   1.467       .  S
C119        O301   1.277       .  A
C120        C157   1.412       .  S
C120        O302   1.264       .  A
C121        C126   1.410       .  A
C121        C506   1.393       .  A
C122        C505   1.393       .  A
C122        C315   1.400       .  A
C122        H131   1.085       .  S
C123        C314   1.400       .  A
C123        C508   1.419   1_556  A
C123        S127   1.810   1_556  S
C124        C125   1.405   1_554  A
C124        C507   1.419   1_554  A
C125        C318   1.404       .  A
C125        H132   1.083       .  S
C126        C317   1.404       .  A
C126        S128   1.798       .  S
S127        H130   1.408       .  S
S128        H129   1.407       .  S
C133        C138   1.436       .  A
C133        C518   1.409       .  A
C134        C135   1.406       .  A
C134        C517   1.409       .  A
C134        H143   1.083       .  S
C135        C520   1.404       .  A
C135        S139   1.796       .  S
C136        C137   1.390       .  A
C136        C519   1.404       .  A
C137        C138   1.403       .  A
C137        H144   1.082       .  S
C138        S140   1.806       .  S
S139        H142   1.407       .  S
S140        H141   1.406       .  S
C145        C150   1.428       .  A
C145        C338   1.418       .  A
C146        C337   1.418       .  A
C146        C915   1.411   1_455  A
C146        H155   1.082   1_554  S
C147        C148   1.405       .  A
C147        C914   1.411       .  A
C147        S151   1.797       .  S
C148        C341   1.400       .  A
C149        C340   1.400       .  A
C149        C918   1.408       .  A
C149        H156   1.084       .  S
C150        C917   1.408   1_455  A
C150        S152   1.797       .  S
S151        H154   1.407   1_554  S
S152        H153   1.407   1_455  S
C157        C158   1.392   1_556  A
C157        C354   1.403       .  A
C158        C159   1.383       .  A
C158        H167   1.082       .  S
C159        C352   1.412   1_554  A
C159        S163   1.813       .  S
C160        C161   1.402       .  A
C160        C351   1.412       .  A
C161        C162   1.379       .  A
C161        H168   1.083       .  S
C162        C349   1.403       .  A
C162        S164   1.803       .  S
S163        H166   1.405       .  S
S164        H165   1.401       .  S
C169        C170   1.404       .  A
C169        C942   1.394       .  A
C170        C555   1.400       .  A
C170        H179   1.084       .  S
C171        C172   1.412   1_565  A
C171        C554   1.400       .  A
C171        S175   1.799       .  S
C172        C941   1.408   1_545  A
C173        C940   1.408   1_565  A
C173        C558   1.397       .  A
C173        H180   1.079   1_565  S
C174        C937   1.394       .  A
C174        C557   1.397       .  A
C174        S176   1.798       .  S
S175        H178   1.407   1_565  S
S176        H177   1.400       .  S
C181        C182   1.411       .  A
C181        C954   1.416       .  A
C182        C183   1.400       .  A
C182        H191   1.084       .  S
C183        C184   1.406       .  A
C183        S187   1.802       .  S
C184        C953   1.411       .  A
C185        C186   1.412       .  A
C185        C952   1.411       .  A
C185        H192   1.083       .  S
C186        C949   1.416       .  A
C186        S188   1.797   1_655  S
S187        H190   1.402       .  S
S188        H189   1.407       .  S
C193        C194   1.403       .  A
C193        C198   1.399       .  A
C193        C309   1.488       .  S
C194        C195   1.411       .  A
C194        H199   1.083       .  S
C195        C196   1.423       .  A
C195        C296   1.496       .  S
C196        C197   1.413       .  A
C196        H200   1.083       .  S
C197        C198   1.408       .  A
C197        C241   1.491       .  S
C198        H201   1.085       .  S
C202        C203   1.430       .  A
C202        C207   1.417       .  A
C202        C267   1.522       .  S
C203        C204   1.433       .  A
C203        H208   1.083       .  S
C204        C205   1.409       .  A
C204        C281   1.513       .  S
C205        C206   1.394       .  A
C205        H209   1.078       .  S
C206        C207   1.410       .  A
C206        C310   1.493       .  S
C207        H210   1.081       .  S
C211        C212   1.415       .  A
C211        C216   1.413       .  A
C211        C282   1.499       .  S
C212        C213   1.412       .  A
C212        H217   1.081       .  S
C213        C214   1.428       .  A
C213        C254   1.516       .  S
C214        C215   1.424       .  A
C214        H218   1.082       .  S
C215        C216   1.415       .  A
C215        C295   1.519       .  S
C216        H219   1.084       .  S
C220        C221   1.397       .  A
C220        C225   1.407       .  A
C220        C242   1.498       .  S
C221        C222   1.413       .  A
C221        H226   1.077       .  S
C222        C223   1.424       .  A
C222        C253   1.495       .  S
C223        C224   1.420       .  A
C223        H227   1.083       .  S
C224        C225   1.410       .  A
C224        C268   1.507       .  S
C225        H228   1.075       .  S
O229       Ni237   1.906       .  S
O229       C1007   1.283       .  A
O230       Ni237   1.928       .  S
O230       C1008   1.282   1_455  A
O231      Ni1005   1.906       .  S
O231        C241   1.279       .  A
O232       Ni237   1.916       .  S
O232        C242   1.280       .  A
O233      Ni1006   1.950   1_455  S
O233        C242   1.288       .  A
O234       Ni238   1.955       .  S
O234        C241   1.288       .  A
O235       Ni238   1.896       .  S
O235        C240   1.280       .  A
O236       Ni238   1.901       .  S
O236        C239   1.274       .  A
Ni237       O999   1.906   1_455  S
Ni237     Ni1006   2.385   1_455  S
Ni238      O1001   1.950       .  S
Ni238     Ni1005   2.385       .  S
C239        C364   1.464       .  S
C239        O997   1.283       .  A
C240        C373   1.484       .  S
C240        O998   1.282       .  A
O243        C253   1.285       .  A
O244       Ni251   1.959       .  S
O244        C254   1.290       .  A
O245       Ni251   1.870       .  S
O245        C255   1.275       .  A
O246       Ni251   1.898       .  S
O246        C256   1.279   1_556  A
O247       Ni252   1.894       .  S
O248       Ni252   1.870       .  S
O249        C254   1.285       .  A
O250       Ni252   1.933       .  S
O250        C253   1.286       .  A
C255        C352   1.437       .  S
C256        C337   1.486       .  S
O257       Ni649   1.969       .  S
O257        C267   1.290       .  A
O258       Ni265   1.949       .  S
O258        C268   1.285       .  A
O259       Ni265   1.925       .  S
O259        C653   1.285       .  A
O260       Ni265   1.922       .  S
O260        C654   1.284   1_545  A
O261       Ni266   1.875       .  S
O261        C270   1.271       .  A
O262       Ni266   1.879       .  S
O262        C269   1.272       .  A
O263       Ni650   1.945   1_545  S
O263        C268   1.287       .  A
O264       Ni266   1.946       .  S
O264        C267   1.288       .  A
Ni265       O641   1.969   1_545  S
Ni265      Ni650   2.380   1_545  S
Ni266       O647   1.945       .  S
Ni266      Ni649   2.380       .  S
C269        C325   1.477       .  S
C269        O643   1.285       .  A
C270        C316   1.466       .  S
C270        O644   1.284       .  A
O271      Ni1047   1.942       .  S
O271        C281   1.291       .  A
O272       Ni279   1.947       .  S
O272        C282   1.288       .  A
O273       Ni279   1.856   1_655  S
O273       C1051   1.274       .  A
O274       Ni279   1.888       .  S
O274       C1052   1.267       .  A
O275       Ni280   1.918       .  S
O275        C284   1.289       .  A
O276       Ni280   1.931       .  S
O276        C283   1.281       .  A
O277      Ni1048   1.934   1_455  S
O277        C282   1.283       .  A
O278       Ni280   1.944       .  S
O278        C281   1.282       .  A
Ni279      O1039   1.942   1_455  S
Ni279     Ni1048   2.387   1_455  S
Ni280      O1045   1.934       .  S
Ni280     Ni1047   2.387       .  S
C283        C376   1.465       .  S
C283       O1041   1.274       .  A
C284        C361   1.461       .  S
C284       O1042   1.267       .  A
O285       Ni677   1.972       .  S
O285        C295   1.292       .  A
O286       Ni293   1.933       .  S
O286        C296   1.288       .  A
O287       Ni293   1.892       .  S
O287        C681   1.268       .  A
O288       Ni293   1.850   1_565  S
O288        C682   1.277       .  A
O289       Ni294   1.909       .  S
O289        C298   1.274       .  A
O290       Ni294   1.893       .  S
O290        C297   1.287       .  A
O291       Ni678   1.927   1_545  S
O291        C296   1.281       .  A
O292       Ni294   1.939       .  S
O292        C295   1.285       .  A
Ni293       O669   1.972   1_545  S
Ni293      Ni678   2.387   1_545  S
Ni294       O675   1.927       .  S
Ni294      Ni677   2.387       .  S
C297        C328   1.467       .  S
C297        O671   1.268       .  A
C298        C313   1.450       .  S
C298        O672   1.277       .  A
O299       Ni307   1.920       .  S
O299        C309   1.283       .  A
O300        C310   1.286       .  A
O301       Ni307   1.855   1_554  S
O302       Ni307   1.861       .  S
O303       Ni308   1.873       .  S
O303        C312   1.281       .  A
O304       Ni308   1.917       .  S
O304        C311   1.275       .  A
O305       Ni308   1.937       .  S
O305        C310   1.283       .  A
O306        C309   1.284       .  A
C311        C340   1.467       .  S
C312        C349   1.412       .  S
C313        C698   1.393       .  A
C313        C318   1.410       .  A
C314        C697   1.393       .  A
C314        H323   1.085       .  S
C315        C700   1.419       .  A
C315        S319   1.810       .  S
C316        C699   1.419       .  A
C316        C317   1.405       .  A
C317        H324   1.083       .  S
C318        S320   1.798       .  S
S319        H322   1.408       .  S
S320        H321   1.407       .  S
C325        C710   1.409       .  A
C325        C330   1.436       .  A
C326        C709   1.409       .  A
C326        C327   1.406       .  A
C326        H335   1.083       .  S
C327        C712   1.404       .  A
C327        S331   1.796       .  S
C328        C711   1.404       .  A
C328        C329   1.390       .  A
C329        C330   1.403       .  A
C329        H336   1.082       .  S
C330        S332   1.806       .  S
S331        H334   1.407       .  S
S332        H333   1.406       .  S
C337        C342   1.428       .  A
C338       C1107   1.411   1_455  A
C338        H347   1.082       .  S
C339       C1106   1.411       .  A
C339        C340   1.405       .  A
C339        S343   1.797       .  S
C341       C1110   1.408       .  A
C341        H348   1.084       .  S
C342       C1109   1.408   1_455  A
C342        S344   1.797       .  S
S343        H346   1.407       .  S
S344        H345   1.407   1_455  S
C349        C350   1.392       .  A
C350        C351   1.383       .  A
C350        H359   1.082       .  S
C351        S355   1.813       .  S
C352        C353   1.402       .  A
C353        C354   1.379       .  A
C353        H360   1.083       .  S
C354        S356   1.803       .  S
S355        H358   1.405       .  S
S356        H357   1.401       .  S
C361        C362   1.404       .  A
C361       C1134   1.394       .  A
C362        C747   1.400       .  A
C362        H371   1.084       .  S
C363        C746   1.400       .  A
C363        C364   1.412   1_565  A
C363        S367   1.799       .  S
C364       C1133   1.408   1_545  A
C365       C1132   1.408   1_565  A
C365        C750   1.397       .  A
C365        H372   1.079   1_565  S
C366       C1129   1.394       .  A
C366        C749   1.397       .  A
C366        S368   1.798       .  S
S367        H370   1.407   1_565  S
S368        H369   1.400       .  S
C373        C374   1.411       .  A
C373       C1146   1.416       .  A
C374        C375   1.400       .  A
C374        H383   1.084       .  S
C375        C376   1.406       .  A
C375        S379   1.802       .  S
C376       C1145   1.411       .  A
C377       C1144   1.411       .  A
C377        C378   1.412       .  A
C377        H384   1.083       .  S
C378       C1141   1.416       .  A
C378        S380   1.797   1_655  S
S379        H382   1.402       .  S
S380        H381   1.407       .  S
C385        C386   1.403       .  A
C385        C390   1.399       .  A
C385        C501   1.488       .  S
C386        C387   1.411       .  A
C386        H391   1.083       .  S
C387        C388   1.423       .  A
C387        C488   1.496       .  S
C388        C389   1.413       .  A
C388        H392   1.083       .  S
C389        C390   1.408       .  A
C389        C433   1.491       .  S
C390        H393   1.085       .  S
C394        C395   1.430       .  A
C394        C399   1.417       .  A
C394        C459   1.522       .  S
C395        C396   1.433       .  A
C395        H400   1.083       .  S
C396        C397   1.409       .  A
C396        C473   1.513       .  S
C397        C398   1.394       .  A
C397        H401   1.078       .  S
C398        C399   1.410       .  A
C398        C502   1.493       .  S
C399        H402   1.081       .  S
C403        C404   1.415       .  A
C403        C408   1.413       .  A
C403        C474   1.499       .  S
C404        C405   1.412       .  A
C404        H409   1.081       .  S
C405        C406   1.428       .  A
C405        C446   1.516       .  S
C406        C407   1.424       .  A
C406        H410   1.082       .  S
C407        C408   1.415       .  A
C407        C487   1.519       .  S
C408        H411   1.084       .  S
C412        C413   1.397       .  A
C412        C417   1.407       .  A
C412        C434   1.498       .  S
C413        C414   1.413       .  A
C413        H418   1.077       .  S
C414        C415   1.424       .  A
C414        C445   1.495       .  S
C415        C416   1.420       .  A
C415        H419   1.083       .  S
C416        C417   1.410       .  A
C416        C460   1.507       .  S
C417        H420   1.075       .  S
O421       Ni429   1.906       .  S
O421       C1199   1.283       .  A
O422       Ni429   1.928       .  S
O422       C1200   1.282   1_455  A
O423      Ni1197   1.906       .  S
O423        C433   1.279       .  A
O424       Ni429   1.916       .  S
O424        C434   1.280       .  A
O425      Ni1198   1.950   1_455  S
O425        C434   1.288       .  A
O426       Ni430   1.955       .  S
O426        C433   1.288       .  A
O427       Ni430   1.896       .  S
O427        C432   1.280       .  A
O428       Ni430   1.901       .  S
O428        C431   1.274       .  A
Ni429      O1191   1.906   1_455  S
Ni429     Ni1198   2.385   1_455  S
Ni430      O1193   1.950       .  S
Ni430     Ni1197   2.385       .  S
C431        C556   1.464       .  S
C431       O1189   1.283       .  A
C432        C565   1.484       .  S
C432       O1190   1.282       .  A
O435       Ni635   1.945   1_554  S
O435        C445   1.285       .  A
O436       Ni443   1.959       .  S
O436        C446   1.290       .  A
O437       Ni443   1.870       .  S
O437        C447   1.275       .  A
O438       Ni443   1.898       .  S
O438        C448   1.279       .  A
O439       Ni444   1.894       .  S
O439        C640   1.277       .  A
O440       Ni444   1.870       .  S
O440        C639   1.271   1_554  A
O441       Ni636   1.940       .  S
O441        C446   1.285       .  A
O442       Ni444   1.933       .  S
O442        C445   1.286       .  A
Ni443       O627   1.945       .  S
Ni443      Ni636   2.388       .  S
Ni444       O633   1.940   1_554  S
Ni444      Ni635   2.388   1_554  S
C447        C544   1.437       .  S
C447        O632   1.271       .  A
C448        C529   1.486       .  S
C448        O631   1.277       .  A
O449        C459   1.290       .  A
O450       Ni457   1.949       .  S
O450        C460   1.285       .  A
O451       Ni457   1.925       .  S
O452       Ni457   1.922       .  S
O453       Ni458   1.875       .  S
O453        C462   1.271       .  A
O454       Ni458   1.879   1_545  S
O454        C461   1.272       .  A
O455        C460   1.287       .  A
O456       Ni458   1.946       .  S
O456        C459   1.288       .  A
C461        C517   1.477       .  S
C462        C508   1.466       .  S
O463      Ni1239   1.942       .  S
O463        C473   1.291       .  A
O464       Ni471   1.947       .  S
O464        C474   1.288       .  A
O465       Ni471   1.856   1_655  S
O465       C1243   1.274       .  A
O466       Ni471   1.888       .  S
O466       C1244   1.267       .  A
O467       Ni472   1.918       .  S
O467        C476   1.289       .  A
O468       Ni472   1.931       .  S
O468        C475   1.281       .  A
O469      Ni1240   1.934   1_455  S
O469        C474   1.283       .  A
O470       Ni472   1.944       .  S
O470        C473   1.282       .  A
Ni471      O1231   1.942   1_455  S
Ni471     Ni1240   2.387   1_455  S
Ni472      O1237   1.934       .  S
Ni472     Ni1239   2.387       .  S
C475        C568   1.465       .  S
C475       O1233   1.274       .  A
C476        C553   1.461       .  S
C476       O1234   1.267       .  A
O477        C487   1.292       .  A
O478       Ni485   1.933       .  S
O478        C488   1.288       .  A
O479       Ni485   1.892       .  S
O480       Ni485   1.850       .  S
O481       Ni486   1.909       .  S
O481        C490   1.274       .  A
O482       Ni486   1.893   1_545  S
O482        C489   1.287       .  A
O483        C488   1.281       .  A
O484       Ni486   1.939       .  S
O484        C487   1.285       .  A
C489        C520   1.467       .  S
C490        C505   1.450       .  S
O491       Ni499   1.920       .  S
O491        C501   1.283       .  A
O492       Ni691   1.939   1_554  S
O492        C502   1.286       .  A
O493       Ni499   1.855       .  S
O493        C695   1.277       .  A
O494       Ni499   1.861       .  S
O494        C696   1.264       .  A
O495       Ni500   1.873       .  S
O495        C504   1.281   1_554  A
O496       Ni500   1.917       .  S
O496        C503   1.275       .  A
O497       Ni500   1.937       .  S
O497        C502   1.283       .  A
O498       Ni692   1.924       .  S
O498        C501   1.284       .  A
Ni499       O684   1.939       .  S
Ni499      Ni692   2.392       .  S
Ni500       O690   1.924   1_554  S
Ni500      Ni691   2.392   1_554  S
C503        C532   1.467       .  S
C503        O685   1.277       .  A
C504        C541   1.412       .  S
C504        O686   1.264       .  A
C505        C510   1.410       .  A
C506        C699   1.400       .  A
C506        H515   1.085       .  S
C507        C698   1.400       .  A
C507        S511   1.810   1_556  S
C508        C509   1.405   1_554  A
C509        C702   1.404       .  A
C509        H516   1.083       .  S
C510        C701   1.404       .  A
C510        S512   1.798       .  S
S511        H514   1.408       .  S
S512        H513   1.407       .  S
C517        C522   1.436       .  A
C518        C519   1.406       .  A
C518        H527   1.083       .  S
C519        S523   1.796       .  S
C520        C521   1.390       .  A
C521        C522   1.403       .  A
C521        H528   1.082       .  S
C522        S524   1.806       .  S
S523        H526   1.407       .  S
S524        H525   1.406       .  S
C529        C722   1.418       .  A
C529        C534   1.428       .  A
C530        C721   1.418       .  A
C530       C1299   1.411   1_455  A
C530        H539   1.082   1_554  S
C531       C1298   1.411       .  A
C531        C532   1.405       .  A
C531        S535   1.797       .  S
C532        C725   1.400       .  A
C533        C724   1.400       .  A
C533       C1302   1.408       .  A
C533        H540   1.084       .  S
C534       C1301   1.408   1_455  A
C534        S536   1.797       .  S
S535        H538   1.407   1_554  S
S536        H537   1.407   1_455  S
C541        C542   1.392   1_556  A
C541        C738   1.403       .  A
C542        C543   1.383       .  A
C542        H551   1.082       .  S
C543        C736   1.412   1_554  A
C543        S547   1.813       .  S
C544        C735   1.412       .  A
C544        C545   1.402       .  A
C545        C546   1.379       .  A
C545        H552   1.083       .  S
C546        C733   1.403       .  A
C546        S548   1.803       .  S
S547        H550   1.405       .  S
S548        H549   1.401       .  S
C553        C554   1.404       .  A
C553       C1326   1.394       .  A
C554        H563   1.084       .  S
C555        C556   1.412       .  A
C555        S559   1.799       .  S
C556       C1325   1.408       .  A
C557       C1324   1.408       .  A
C557        H564   1.079       .  S
C558       C1321   1.394       .  A
C558        S560   1.798       .  S
S559        H562   1.407       .  S
S560        H561   1.400       .  S
C565        C566   1.411       .  A
C565       C1338   1.416       .  A
C566        C567   1.400       .  A
C566        H575   1.084       .  S
C567        C568   1.406       .  A
C567        S571   1.802       .  S
C568       C1337   1.411       .  A
C569       C1336   1.411       .  A
C569        C570   1.412       .  A
C569        H576   1.083       .  S
C570       C1333   1.416       .  A
C570        S572   1.797   1_655  S
S571        H574   1.402       .  S
S572        H573   1.407       .  S
C577        C578   1.403       .  A
C577        C582   1.399       .  A
C577        C693   1.488       .  S
C578        C579   1.411       .  A
C578        H583   1.083       .  S
C579        C580   1.423       .  A
C579        C680   1.496       .  S
C580        C581   1.413       .  A
C580        H584   1.083       .  S
C581        C582   1.408       .  A
C581        C625   1.491       .  S
C582        H585   1.085       .  S
C586        C587   1.430       .  A
C586        C591   1.417       .  A
C586        C651   1.522       .  S
C587        C588   1.433       .  A
C587        H592   1.083       .  S
C588        C589   1.409       .  A
C588        C665   1.513       .  S
C589        C590   1.394       .  A
C589        H593   1.078       .  S
C590        C591   1.410       .  A
C590        C694   1.493       .  S
C591        H594   1.081       .  S
C595        C596   1.415       .  A
C595        C600   1.413       .  A
C595        C666   1.499       .  S
C596        C597   1.412       .  A
C596        H601   1.081       .  S
C597        C598   1.428       .  A
C597        C638   1.516       .  S
C598        C599   1.424       .  A
C598        H602   1.082       .  S
C599        C600   1.415       .  A
C599        C679   1.519       .  S
C600        H603   1.084       .  S
C604        C605   1.397       .  A
C604        C609   1.407       .  A
C604        C626   1.498       .  S
C605        C606   1.413       .  A
C605        H610   1.077       .  S
C606        C607   1.424       .  A
C606        C637   1.495       .  S
C607        C608   1.420       .  A
C607        H611   1.083       .  S
C608        C609   1.410       .  A
C608        C652   1.507       .  S
C609        H612   1.075       .  S
O613       Ni621   1.906       .  S
O613       C1391   1.283       .  A
O614       Ni621   1.928       .  S
O614       C1392   1.282   1_455  A
O615      Ni1389   1.906       .  S
O615        C625   1.279       .  A
O616       Ni621   1.916       .  S
O616        C626   1.280       .  A
O617      Ni1390   1.950   1_455  S
O617        C626   1.288       .  A
O618       Ni622   1.955       .  S
O618        C625   1.288       .  A
O619       Ni622   1.896       .  S
O619        C624   1.280       .  A
O620       Ni622   1.901       .  S
O620        C623   1.274       .  A
Ni621      O1383   1.906   1_455  S
Ni621     Ni1390   2.385   1_455  S
Ni622      O1385   1.950       .  S
Ni622     Ni1389   2.385       .  S
C623        C748   1.464       .  S
C623       O1381   1.283       .  A
C624        C757   1.484       .  S
C624       O1382   1.282       .  A
O627        C637   1.285       .  A
O628       Ni635   1.959       .  S
O628        C638   1.290       .  A
O629       Ni635   1.870       .  S
O629        C639   1.275       .  A
O630       Ni635   1.898       .  S
O630        C640   1.279   1_556  A
O631       Ni636   1.894       .  S
O632       Ni636   1.870       .  S
O633        C638   1.285       .  A
O634       Ni636   1.933       .  S
O634        C637   1.286       .  A
C639        C736   1.437       .  S
C640        C721   1.486       .  S
O641        C651   1.290       .  A
O642       Ni649   1.949       .  S
O642        C652   1.285       .  A
O643       Ni649   1.925       .  S
O644       Ni649   1.922       .  S
O645       Ni650   1.875       .  S
O645        C654   1.271       .  A
O646       Ni650   1.879   1_545  S
O646        C653   1.272       .  A
O647        C652   1.287       .  A
O648       Ni650   1.946       .  S
O648        C651   1.288       .  A
C653        C709   1.477       .  S
C654        C700   1.466       .  S
O655      Ni1431   1.942       .  S
O655        C665   1.291       .  A
O656       Ni663   1.947       .  S
O656        C666   1.288       .  A
O657       Ni663   1.856   1_655  S
O657       C1435   1.274       .  A
O658       Ni663   1.888       .  S
O658       C1436   1.267       .  A
O659       Ni664   1.918       .  S
O659        C668   1.289       .  A
O660       Ni664   1.931       .  S
O660        C667   1.281       .  A
O661      Ni1432   1.934   1_455  S
O661        C666   1.283       .  A
O662       Ni664   1.944       .  S
O662        C665   1.282       .  A
Ni663      O1423   1.942   1_455  S
Ni663     Ni1432   2.387   1_455  S
Ni664      O1429   1.934       .  S
Ni664     Ni1431   2.387       .  S
C667        C760   1.465       .  S
C667       O1425   1.274       .  A
C668        C745   1.461       .  S
C668       O1426   1.267       .  A
O669        C679   1.292       .  A
O670       Ni677   1.933       .  S
O670        C680   1.288       .  A
O671       Ni677   1.892       .  S
O672       Ni677   1.850       .  S
O673       Ni678   1.909       .  S
O673        C682   1.274       .  A
O674       Ni678   1.893   1_545  S
O674        C681   1.287       .  A
O675        C680   1.281       .  A
O676       Ni678   1.939       .  S
O676        C679   1.285       .  A
C681        C712   1.467       .  S
C682        C697   1.450       .  S
O683       Ni691   1.920       .  S
O683        C693   1.283       .  A
O684        C694   1.286       .  A
O685       Ni691   1.855   1_554  S
O686       Ni691   1.861       .  S
O687       Ni692   1.873       .  S
O687        C696   1.281       .  A
O688       Ni692   1.917       .  S
O688        C695   1.275       .  A
O689       Ni692   1.937       .  S
O689        C694   1.283       .  A
O690        C693   1.284       .  A
C695        C724   1.467       .  S
C696        C733   1.412       .  S
C697        C702   1.410       .  A
C698        H707   1.085       .  S
C699        S703   1.810       .  S
C700        C701   1.405       .  A
C701        H708   1.083       .  S
C702        S704   1.798       .  S
S703        H706   1.408       .  S
S704        H705   1.407       .  S
C709        C714   1.436       .  A
C710        C711   1.406       .  A
C710        H719   1.083       .  S
C711        S715   1.796       .  S
C712        C713   1.390       .  A
C713        C714   1.403       .  A
C713        H720   1.082       .  S
C714        S716   1.806       .  S
S715        H718   1.407       .  S
S716        H717   1.406       .  S
C721        C726   1.428       .  A
C722       C1491   1.411   1_455  A
C722        H731   1.082       .  S
C723       C1490   1.411       .  A
C723        C724   1.405       .  A
C723        S727   1.797       .  S
C725       C1494   1.408       .  A
C725        H732   1.084       .  S
C726       C1493   1.408   1_455  A
C726        S728   1.797       .  S
S727        H730   1.407       .  S
S728        H729   1.407   1_455  S
C733        C734   1.392       .  A
C734        C735   1.383       .  A
C734        H743   1.082       .  S
C735        S739   1.813       .  S
C736        C737   1.402       .  A
C737        C738   1.379       .  A
C737        H744   1.083       .  S
C738        S740   1.803       .  S
S739        H742   1.405       .  S
S740        H741   1.401       .  S
C745        C746   1.404       .  A
C745       C1518   1.394       .  A
C746        H755   1.084       .  S
C747        C748   1.412       .  A
C747        S751   1.799       .  S
C748       C1517   1.408       .  A
C749       C1516   1.408       .  A
C749        H756   1.079       .  S
C750       C1513   1.394       .  A
C750        S752   1.798       .  S
S751        H754   1.407       .  S
S752        H753   1.400       .  S
C757        C758   1.411       .  A
C757       C1530   1.416       .  A
C758        C759   1.400       .  A
C758        H767   1.084       .  S
C759        C760   1.406       .  A
C759        S763   1.802       .  S
C760       C1529   1.411       .  A
C761       C1528   1.411       .  A
C761        C762   1.412       .  A
C761        H768   1.083       .  S
C762       C1525   1.416       .  A
C762        S764   1.797   1_655  S
S763        H766   1.402       .  S
S764        H765   1.407       .  S
C769        C770   1.403       .  A
C769        C774   1.399       .  A
C769        C885   1.488       .  S
C770        C771   1.411       .  A
C770        H775   1.083       .  S
C771        C772   1.423       .  A
C771        C872   1.496       .  S
C772        C773   1.413       .  A
C772        H776   1.083       .  S
C773        C774   1.408       .  A
C773        C817   1.491       .  S
C774        H777   1.085       .  S
C778        C779   1.430       .  A
C778        C783   1.417       .  A
C778        C843   1.522       .  S
C779        C780   1.433       .  A
C779        H784   1.083       .  S
C780        C781   1.409       .  A
C780        C857   1.513       .  S
C781        C782   1.394       .  A
C781        H785   1.078       .  S
C782        C783   1.410       .  A
C782        C886   1.493       .  S
C783        H786   1.081       .  S
C787        C788   1.415       .  A
C787        C792   1.413       .  A
C787        C858   1.499       .  S
C788        C789   1.412       .  A
C788        H793   1.081       .  S
C789        C790   1.428       .  A
C789        C830   1.516       .  S
C790        C791   1.424       .  A
C790        H794   1.082       .  S
C791        C792   1.415       .  A
C791        C871   1.519       .  S
C792        H795   1.084       .  S
C796        C797   1.397       .  A
C796        C801   1.407       .  A
C796        C818   1.498       .  S
C797        C798   1.413       .  A
C797        H802   1.077       .  S
C798        C799   1.424       .  A
C798        C829   1.495       .  S
C799        C800   1.420       .  A
C799        H803   1.083       .  S
C800        C801   1.410       .  A
C800        C844   1.507       .  S
C801        H804   1.075       .  S
O805       Ni813   1.906       .  S
O806       Ni813   1.928       .  S
O807        C817   1.279       .  A
O808       Ni813   1.916       .  S
O808        C818   1.280       .  A
O809        C818   1.288       .  A
O810       Ni814   1.955       .  S
O810        C817   1.288       .  A
O811       Ni814   1.896       .  S
O811        C816   1.280       .  A
O812       Ni814   1.901       .  S
O812        C815   1.274   1_655  A
C815        C940   1.464       .  S
C816        C949   1.484       .  S
O819      Ni1019   1.945   1_554  S
O819        C829   1.285       .  A
O820       Ni827   1.959       .  S
O820        C830   1.290       .  A
O821       Ni827   1.870       .  S
O821        C831   1.275       .  A
O822       Ni827   1.898       .  S
O822        C832   1.279       .  A
O823       Ni828   1.894       .  S
O823       C1024   1.277       .  A
O824       Ni828   1.870       .  S
O824       C1023   1.271   1_554  A
O825      Ni1020   1.940       .  S
O825        C830   1.285       .  A
O826       Ni828   1.933       .  S
O826        C829   1.286       .  A
Ni827      O1011   1.945       .  S
Ni827     Ni1020   2.388       .  S
Ni828      O1017   1.940   1_554  S
Ni828     Ni1019   2.388   1_554  S
C831        C928   1.437       .  S
C831       O1016   1.271       .  A
C832        C913   1.486       .  S
C832       O1015   1.277       .  A
O833      Ni1225   1.969       .  S
O833        C843   1.290       .  A
O834       Ni841   1.949       .  S
O834        C844   1.285       .  A
O835       Ni841   1.925       .  S
O835       C1229   1.285       .  A
O836       Ni841   1.922       .  S
O836       C1230   1.284   1_545  A
O837       Ni842   1.875       .  S
O837        C846   1.271       .  A
O838       Ni842   1.879       .  S
O838        C845   1.272       .  A
O839      Ni1226   1.945   1_545  S
O839        C844   1.287       .  A
O840       Ni842   1.946       .  S
O840        C843   1.288       .  A
Ni841      O1217   1.969   1_545  S
Ni841     Ni1226   2.380   1_545  S
Ni842      O1223   1.945       .  S
Ni842     Ni1225   2.380       .  S
C845        C901   1.477       .  S
C845       O1219   1.285       .  A
C846        C892   1.466       .  S
C846       O1220   1.284       .  A
O847        C857   1.291       .  A
O848       Ni855   1.947       .  S
O848        C858   1.288       .  A
O849       Ni855   1.856       .  S
O850       Ni855   1.888       .  S
O851       Ni856   1.918   1_455  S
O851        C860   1.289       .  A
O852       Ni856   1.931       .  S
O852        C859   1.281       .  A
O853        C858   1.283       .  A
O854       Ni856   1.944       .  S
O854        C857   1.282       .  A
C859        C952   1.465       .  S
C860        C937   1.461       .  S
O861      Ni1253   1.972       .  S
O861        C871   1.292       .  A
O862       Ni869   1.933       .  S
O862        C872   1.288       .  A
O863       Ni869   1.892       .  S
O863       C1257   1.268       .  A
O864       Ni869   1.850   1_565  S
O864       C1258   1.277       .  A
O865       Ni870   1.909       .  S
O865        C874   1.274       .  A
O866       Ni870   1.893       .  S
O866        C873   1.287       .  A
O867      Ni1254   1.927   1_545  S
O867        C872   1.281       .  A
O868       Ni870   1.939       .  S
O868        C871   1.285       .  A
Ni869      O1245   1.972   1_545  S
Ni869     Ni1254   2.387   1_545  S
Ni870      O1251   1.927       .  S
Ni870     Ni1253   2.387       .  S
C873        C904   1.467       .  S
C873       O1247   1.268       .  A
C874        C889   1.450       .  S
C874       O1248   1.277       .  A
O875       Ni883   1.920       .  S
O875        C885   1.283       .  A
O876      Ni1075   1.939   1_554  S
O876        C886   1.286       .  A
O877       Ni883   1.855       .  S
O877       C1079   1.277       .  A
O878       Ni883   1.861       .  S
O878       C1080   1.264       .  A
O879       Ni884   1.873       .  S
O879        C888   1.281   1_554  A
O880       Ni884   1.917       .  S
O880        C887   1.275       .  A
O881       Ni884   1.937       .  S
O881        C886   1.283       .  A
O882      Ni1076   1.924       .  S
O882        C885   1.284       .  A
Ni883      O1068   1.939       .  S
Ni883     Ni1076   2.392       .  S
Ni884      O1074   1.924   1_554  S
Ni884     Ni1075   2.392   1_554  S
C887        C916   1.467       .  S
C887       O1069   1.277       .  A
C888        C925   1.412       .  S
C888       O1070   1.264       .  A
C889       C1274   1.393       .  A
C889        C894   1.410       .  A
C890       C1273   1.393       .  A
C890       C1083   1.400       .  A
C890        H899   1.085       .  S
C891       C1082   1.400       .  A
C891       C1276   1.419   1_556  A
C891        S895   1.810   1_556  S
C892       C1275   1.419   1_554  A
C892        C893   1.405   1_554  A
C893       C1086   1.404       .  A
C893        H900   1.083       .  S
C894       C1085   1.404       .  A
C894        S896   1.799       .  S
S895        H898   1.408       .  S
S896        H897   1.407       .  S
C901       C1286   1.409       .  A
C901        C906   1.436       .  A
C902       C1285   1.409       .  A
C902        C903   1.406       .  A
C902        H911   1.083       .  S
C903       C1288   1.404       .  A
C903        S907   1.796       .  S
C904       C1287   1.404       .  A
C904        C905   1.390       .  A
C905        C906   1.403       .  A
C905        H912   1.082       .  S
C906        S908   1.806       .  S
S907        H910   1.407       .  S
S908        H909   1.406       .  S
C913       C1106   1.418       .  A
C913        C918   1.428       .  A
C914       C1105   1.418       .  A
C914        H923   1.082   1_554  S
C915        C916   1.405       .  A
C915        S919   1.797       .  S
C916       C1109   1.400       .  A
C917       C1108   1.400       .  A
C917        H924   1.084       .  S
C918        S920   1.797       .  S
S919        H922   1.407   1_654  S
S920        H921   1.407       .  S
C925        C926   1.392   1_556  A
C925       C1122   1.403       .  A
C926        C927   1.383       .  A
C926        H935   1.082       .  S
C927       C1120   1.412   1_554  A
C927        S931   1.813       .  S
C928       C1119   1.412       .  A
C928        C929   1.402       .  A
C929        C930   1.379       .  A
C929        H936   1.083       .  S
C930       C1117   1.403       .  A
C930        S932   1.803       .  S
S931        H934   1.405       .  S
S932        H933   1.401       .  S
C937        C938   1.404       .  A
C938       C1323   1.400       .  A
C938        H947   1.084       .  S
C939       C1322   1.400       .  A
C939        C940   1.412   1_565  A
C939        S943   1.799   1_455  S
C941       C1326   1.397       .  A
C941        H948   1.079   1_565  S
C942       C1325   1.397       .  A
C942        S944   1.798       .  S
S943        H946   1.407   1_565  S
S944        H945   1.400       .  S
C949        C950   1.411       .  A
C950        C951   1.400       .  A
C950        H959   1.084       .  S
C951        C952   1.406       .  A
C951        S955   1.802       .  S
C953        C954   1.412       .  A
C953        H960   1.083       .  S
C954        S956   1.797       .  S
S955        H958   1.402       .  S
S956        H957   1.407       .  S
C961        C962   1.403       .  A
C961        C966   1.399       .  A
C961       C1077   1.488       .  S
C962        C963   1.411       .  A
C962        H967   1.083       .  S
C963        C964   1.423       .  A
C963       C1064   1.496       .  S
C964        C965   1.413       .  A
C964        H968   1.083       .  S
C965        C966   1.408       .  A
C965       C1009   1.491       .  S
C966        H969   1.085       .  S
C970        C971   1.430       .  A
C970        C975   1.417       .  A
C970       C1035   1.522       .  S
C971        C972   1.433       .  A
C971        H976   1.083       .  S
C972        C973   1.409       .  A
C972       C1049   1.513       .  S
C973        C974   1.394       .  A
C973        H977   1.078       .  S
C974        C975   1.410       .  A
C974       C1078   1.493       .  S
C975        H978   1.081       .  S
C979        C980   1.415       .  A
C979        C984   1.413       .  A
C979       C1050   1.499       .  S
C980        C981   1.412       .  A
C980        H985   1.081       .  S
C981        C982   1.428       .  A
C981       C1022   1.516       .  S
C982        C983   1.424       .  A
C982        H986   1.082       .  S
C983        C984   1.415       .  A
C983       C1063   1.519       .  S
C984        H987   1.084       .  S
C988        C989   1.397       .  A
C988        C993   1.407       .  A
C988       C1010   1.498       .  S
C989        C990   1.413       .  A
C989        H994   1.077       .  S
C990        C991   1.424       .  A
C990       C1021   1.495       .  S
C991        C992   1.420       .  A
C991        H995   1.083       .  S
C992        C993   1.410       .  A
C992       C1036   1.507       .  S
C993        H996   1.075       .  S
O997      Ni1005   1.906       .  S
O998      Ni1005   1.928       .  S
O999       C1009   1.279       .  A
O1000     Ni1005   1.916       .  S
O1000      C1010   1.280       .  A
O1001      C1010   1.288       .  A
O1002     Ni1006   1.955       .  S
O1002      C1009   1.288       .  A
O1003     Ni1006   1.896       .  S
O1003      C1008   1.280       .  A
O1004     Ni1006   1.901       .  S
O1004      C1007   1.274   1_655  A
C1007      C1132   1.464       .  S
C1008      C1141   1.484       .  S
O1011      C1021   1.285       .  A
O1012     Ni1019   1.959       .  S
O1012      C1022   1.290       .  A
O1013     Ni1019   1.870       .  S
O1013      C1023   1.275       .  A
O1014     Ni1019   1.898       .  S
O1014      C1024   1.279   1_556  A
O1015     Ni1020   1.894       .  S
O1016     Ni1020   1.870       .  S
O1017      C1022   1.285       .  A
O1018     Ni1020   1.933       .  S
O1018      C1021   1.286       .  A
C1023      C1120   1.437       .  S
C1024      C1105   1.486       .  S
O1025     Ni1417   1.969       .  S
O1025      C1035   1.290       .  A
O1026     Ni1033   1.949       .  S
O1026      C1036   1.285       .  A
O1027     Ni1033   1.925       .  S
O1027      C1421   1.285       .  A
O1028     Ni1033   1.922       .  S
O1028      C1422   1.284   1_545  A
O1029     Ni1034   1.875       .  S
O1029      C1038   1.271       .  A
O1030     Ni1034   1.879       .  S
O1030      C1037   1.272       .  A
O1031     Ni1418   1.945   1_545  S
O1031      C1036   1.287       .  A
O1032     Ni1034   1.946       .  S
O1032      C1035   1.288       .  A
Ni1033     O1409   1.969   1_545  S
Ni1033    Ni1418   2.380   1_545  S
Ni1034     O1415   1.945       .  S
Ni1034    Ni1417   2.380       .  S
C1037      C1093   1.477       .  S
C1037      O1411   1.285       .  A
C1038      C1084   1.466       .  S
C1038      O1412   1.284       .  A
O1039      C1049   1.291       .  A
O1040     Ni1047   1.947       .  S
O1040      C1050   1.288       .  A
O1041     Ni1047   1.856       .  S
O1042     Ni1047   1.888       .  S
O1043     Ni1048   1.918   1_455  S
O1043      C1052   1.289       .  A
O1044     Ni1048   1.931       .  S
O1044      C1051   1.281       .  A
O1045      C1050   1.283       .  A
O1046     Ni1048   1.944       .  S
O1046      C1049   1.282       .  A
C1051      C1144   1.465       .  S
C1052      C1129   1.461       .  S
O1053     Ni1445   1.972       .  S
O1053      C1063   1.292       .  A
O1054     Ni1061   1.933       .  S
O1054      C1064   1.288       .  A
O1055     Ni1061   1.892       .  S
O1055      C1449   1.268       .  A
O1056     Ni1061   1.850   1_565  S
O1056      C1450   1.277       .  A
O1057     Ni1062   1.909       .  S
O1057      C1066   1.274       .  A
O1058     Ni1062   1.893       .  S
O1058      C1065   1.287       .  A
O1059     Ni1446   1.927   1_545  S
O1059      C1064   1.281       .  A
O1060     Ni1062   1.939       .  S
O1060      C1063   1.285       .  A
Ni1061     O1437   1.972   1_545  S
Ni1061    Ni1446   2.387   1_545  S
Ni1062     O1443   1.927       .  S
Ni1062    Ni1445   2.387       .  S
C1065      C1096   1.467       .  S
C1065      O1439   1.268       .  A
C1066      C1081   1.450       .  S
C1066      O1440   1.277       .  A
O1067     Ni1075   1.920       .  S
O1067      C1077   1.283       .  A
O1068      C1078   1.286       .  A
O1069     Ni1075   1.855   1_554  S
O1070     Ni1075   1.861       .  S
O1071     Ni1076   1.873       .  S
O1071      C1080   1.281       .  A
O1072     Ni1076   1.917       .  S
O1072      C1079   1.275       .  A
O1073     Ni1076   1.937       .  S
O1073      C1078   1.283       .  A
O1074      C1077   1.284       .  A
C1079      C1108   1.467       .  S
C1080      C1117   1.412       .  S
C1081      C1466   1.393       .  A
C1081      C1086   1.410       .  A
C1082      C1465   1.393       .  A
C1082      H1091   1.085       .  S
C1083      C1468   1.419       .  A
C1083      S1087   1.810       .  S
C1084      C1467   1.419       .  A
C1084      C1085   1.405       .  A
C1085      H1092   1.083       .  S
C1086      S1088   1.799       .  S
S1087      H1090   1.408       .  S
S1088      H1089   1.407       .  S
C1093      C1478   1.409       .  A
C1093      C1098   1.436       .  A
C1094      C1477   1.409       .  A
C1094      C1095   1.406       .  A
C1094      H1103   1.083       .  S
C1095      C1480   1.404       .  A
C1095      S1099   1.796       .  S
C1096      C1479   1.404       .  A
C1096      C1097   1.390       .  A
C1097      C1098   1.403       .  A
C1097      H1104   1.082       .  S
C1098      S1100   1.806       .  S
S1099      H1102   1.407       .  S
S1100      H1101   1.406       .  S
C1105      C1110   1.428       .  A
C1106      H1115   1.082       .  S
C1107      C1108   1.405       .  A
C1107      S1111   1.797       .  S
C1109      H1116   1.084       .  S
C1110      S1112   1.797       .  S
S1111      H1114   1.407   1_655  S
S1112      H1113   1.407       .  S
C1117      C1118   1.392       .  A
C1118      C1119   1.383       .  A
C1118      H1127   1.082       .  S
C1119      S1123   1.813       .  S
C1120      C1121   1.402       .  A
C1121      C1122   1.379       .  A
C1121      H1128   1.083       .  S
C1122      S1124   1.803       .  S
S1123      H1126   1.405       .  S
S1124      H1125   1.401       .  S
C1129      C1130   1.404       .  A
C1130      C1515   1.400       .  A
C1130      H1139   1.084       .  S
C1131      C1514   1.400       .  A
C1131      C1132   1.412   1_565  A
C1131      S1135   1.799   1_455  S
C1133      C1518   1.397       .  A
C1133      H1140   1.079   1_565  S
C1134      C1517   1.397       .  A
C1134      S1136   1.798       .  S
S1135      H1138   1.407   1_565  S
S1136      H1137   1.400       .  S
C1141      C1142   1.411       .  A
C1142      C1143   1.400       .  A
C1142      H1151   1.084       .  S
C1143      C1144   1.406       .  A
C1143      S1147   1.802       .  S
C1145      C1146   1.412       .  A
C1145      H1152   1.083       .  S
C1146      S1148   1.797       .  S
S1147      H1150   1.402       .  S
S1148      H1149   1.407       .  S
C1153      C1154   1.403       .  A
C1153      C1158   1.399       .  A
C1153      C1269   1.488       .  S
C1154      C1155   1.411       .  A
C1154      H1159   1.083       .  S
C1155      C1156   1.423       .  A
C1155      C1256   1.496       .  S
C1156      C1157   1.413       .  A
C1156      H1160   1.083       .  S
C1157      C1158   1.408       .  A
C1157      C1201   1.491       .  S
C1158      H1161   1.085       .  S
C1162      C1163   1.430       .  A
C1162      C1167   1.417       .  A
C1162      C1227   1.522       .  S
C1163      C1164   1.433       .  A
C1163      H1168   1.083       .  S
C1164      C1165   1.409       .  A
C1164      C1241   1.513       .  S
C1165      C1166   1.394       .  A
C1165      H1169   1.078       .  S
C1166      C1167   1.410       .  A
C1166      C1270   1.493       .  S
C1167      H1170   1.081       .  S
C1171      C1172   1.415       .  A
C1171      C1176   1.413       .  A
C1171      C1242   1.499       .  S
C1172      C1173   1.412       .  A
C1172      H1177   1.081       .  S
C1173      C1174   1.428       .  A
C1173      C1214   1.516       .  S
C1174      C1175   1.424       .  A
C1174      H1178   1.082       .  S
C1175      C1176   1.415       .  A
C1175      C1255   1.519       .  S
C1176      H1179   1.084       .  S
C1180      C1181   1.397       .  A
C1180      C1185   1.407       .  A
C1180      C1202   1.498       .  S
C1181      C1182   1.413       .  A
C1181      H1186   1.077       .  S
C1182      C1183   1.424       .  A
C1182      C1213   1.495       .  S
C1183      C1184   1.420       .  A
C1183      H1187   1.083       .  S
C1184      C1185   1.410       .  A
C1184      C1228   1.507       .  S
C1185      H1188   1.075       .  S
O1189     Ni1197   1.906       .  S
O1190     Ni1197   1.928       .  S
O1191      C1201   1.279       .  A
O1192     Ni1197   1.916       .  S
O1192      C1202   1.280       .  A
O1193      C1202   1.288       .  A
O1194     Ni1198   1.955       .  S
O1194      C1201   1.288       .  A
O1195     Ni1198   1.896       .  S
O1195      C1200   1.280       .  A
O1196     Ni1198   1.901       .  S
O1196      C1199   1.274   1_655  A
C1199      C1324   1.464       .  S
C1200      C1333   1.484       .  S
O1203     Ni1403   1.945   1_554  S
O1203      C1213   1.285       .  A
O1204     Ni1211   1.959       .  S
O1204      C1214   1.290       .  A
O1205     Ni1211   1.870       .  S
O1205      C1215   1.275       .  A
O1206     Ni1211   1.898       .  S
O1206      C1216   1.279       .  A
O1207     Ni1212   1.894       .  S
O1207      C1408   1.277       .  A
O1208     Ni1212   1.870       .  S
O1208      C1407   1.271   1_554  A
O1209     Ni1404   1.940       .  S
O1209      C1214   1.285       .  A
O1210     Ni1212   1.933       .  S
O1210      C1213   1.286       .  A
Ni1211     O1395   1.945       .  S
Ni1211    Ni1404   2.388       .  S
Ni1212     O1401   1.940   1_554  S
Ni1212    Ni1403   2.388   1_554  S
C1215      C1312   1.437       .  S
C1215      O1400   1.271       .  A
C1216      C1297   1.486       .  S
C1216      O1399   1.277       .  A
O1217      C1227   1.290       .  A
O1218     Ni1225   1.949       .  S
O1218      C1228   1.285       .  A
O1219     Ni1225   1.925       .  S
O1220     Ni1225   1.922       .  S
O1221     Ni1226   1.875       .  S
O1221      C1230   1.271       .  A
O1222     Ni1226   1.879   1_545  S
O1222      C1229   1.272       .  A
O1223      C1228   1.287       .  A
O1224     Ni1226   1.946       .  S
O1224      C1227   1.288       .  A
C1229      C1285   1.477       .  S
C1230      C1276   1.466       .  S
O1231      C1241   1.291       .  A
O1232     Ni1239   1.947       .  S
O1232      C1242   1.288       .  A
O1233     Ni1239   1.856       .  S
O1234     Ni1239   1.888       .  S
O1235     Ni1240   1.918   1_455  S
O1235      C1244   1.289       .  A
O1236     Ni1240   1.931       .  S
O1236      C1243   1.281       .  A
O1237      C1242   1.283       .  A
O1238     Ni1240   1.944       .  S
O1238      C1241   1.282       .  A
C1243      C1336   1.465       .  S
C1244      C1321   1.461       .  S
O1245      C1255   1.292       .  A
O1246     Ni1253   1.933       .  S
O1246      C1256   1.288       .  A
O1247     Ni1253   1.892       .  S
O1248     Ni1253   1.850       .  S
O1249     Ni1254   1.909       .  S
O1249      C1258   1.274       .  A
O1250     Ni1254   1.893   1_545  S
O1250      C1257   1.287       .  A
O1251      C1256   1.281       .  A
O1252     Ni1254   1.939       .  S
O1252      C1255   1.285       .  A
C1257      C1288   1.467       .  S
C1258      C1273   1.450       .  S
O1259     Ni1267   1.920       .  S
O1259      C1269   1.283       .  A
O1260     Ni1459   1.939   1_554  S
O1260      C1270   1.286       .  A
O1261     Ni1267   1.855       .  S
O1261      C1463   1.277       .  A
O1262     Ni1267   1.861       .  S
O1262      C1464   1.264       .  A
O1263     Ni1268   1.873       .  S
O1263      C1272   1.281   1_554  A
O1264     Ni1268   1.917       .  S
O1264      C1271   1.275       .  A
O1265     Ni1268   1.937       .  S
O1265      C1270   1.283       .  A
O1266     Ni1460   1.924       .  S
O1266      C1269   1.284       .  A
Ni1267     O1452   1.939       .  S
Ni1267    Ni1460   2.392       .  S
Ni1268     O1458   1.924   1_554  S
Ni1268    Ni1459   2.392   1_554  S
C1271      C1300   1.467       .  S
C1271      O1453   1.277       .  A
C1272      C1309   1.412       .  S
C1272      O1454   1.264       .  A
C1273      C1278   1.410       .  A
C1274      C1467   1.400       .  A
C1274      H1283   1.085       .  S
C1275      C1466   1.400       .  A
C1275      S1279   1.810   1_556  S
C1276      C1277   1.405   1_554  A
C1277      C1470   1.404       .  A
C1277      H1284   1.083       .  S
C1278      C1469   1.404       .  A
C1278      S1280   1.798       .  S
S1279      H1282   1.408       .  S
S1280      H1281   1.407       .  S
C1285      C1290   1.436       .  A
C1286      C1287   1.406       .  A
C1286      H1295   1.083       .  S
C1287      S1291   1.796       .  S
C1288      C1289   1.390       .  A
C1289      C1290   1.403       .  A
C1289      H1296   1.082       .  S
C1290      S1292   1.806       .  S
S1291      H1294   1.407       .  S
S1292      H1293   1.406       .  S
C1297      C1490   1.418       .  A
C1297      C1302   1.428       .  A
C1298      C1489   1.418       .  A
C1298      H1307   1.082   1_554  S
C1299      C1300   1.405       .  A
C1299      S1303   1.797       .  S
C1300      C1493   1.400       .  A
C1301      C1492   1.400       .  A
C1301      H1308   1.084       .  S
C1302      S1304   1.797       .  S
S1303      H1306   1.407   1_654  S
S1304      H1305   1.407       .  S
C1309      C1310   1.392   1_556  A
C1309      C1506   1.403       .  A
C1310      C1311   1.383       .  A
C1310      H1319   1.082       .  S
C1311      C1504   1.412   1_554  A
C1311      S1315   1.813       .  S
C1312      C1503   1.412       .  A
C1312      C1313   1.402       .  A
C1313      C1314   1.379       .  A
C1313      H1320   1.083       .  S
C1314      C1501   1.403       .  A
C1314      S1316   1.803       .  S
S1315      H1318   1.405       .  S
S1316      H1317   1.401       .  S
C1321      C1322   1.404       .  A
C1322      H1331   1.084       .  S
C1323      C1324   1.412       .  A
C1323      S1327   1.799   1_455  S
C1325      H1332   1.079       .  S
C1326      S1328   1.798       .  S
S1327      H1330   1.407       .  S
S1328      H1329   1.400       .  S
C1333      C1334   1.411       .  A
C1334      C1335   1.400       .  A
C1334      H1343   1.084       .  S
C1335      C1336   1.406       .  A
C1335      S1339   1.802       .  S
C1337      C1338   1.412       .  A
C1337      H1344   1.083       .  S
C1338      S1340   1.797       .  S
S1339      H1342   1.402       .  S
S1340      H1341   1.407       .  S
C1345      C1346   1.403       .  A
C1345      C1350   1.399       .  A
C1345      C1461   1.488       .  S
C1346      C1347   1.411       .  A
C1346      H1351   1.083       .  S
C1347      C1348   1.423       .  A
C1347      C1448   1.496       .  S
C1348      C1349   1.413       .  A
C1348      H1352   1.083       .  S
C1349      C1350   1.408       .  A
C1349      C1393   1.491       .  S
C1350      H1353   1.085       .  S
C1354      C1355   1.430       .  A
C1354      C1359   1.417       .  A
C1354      C1419   1.522       .  S
C1355      C1356   1.433       .  A
C1355      H1360   1.083       .  S
C1356      C1357   1.409       .  A
C1356      C1433   1.513       .  S
C1357      C1358   1.394       .  A
C1357      H1361   1.078       .  S
C1358      C1359   1.410       .  A
C1358      C1462   1.493       .  S
C1359      H1362   1.081       .  S
C1363      C1364   1.415       .  A
C1363      C1368   1.413       .  A
C1363      C1434   1.499       .  S
C1364      C1365   1.412       .  A
C1364      H1369   1.081       .  S
C1365      C1366   1.428       .  A
C1365      C1406   1.516       .  S
C1366      C1367   1.424       .  A
C1366      H1370   1.082       .  S
C1367      C1368   1.415       .  A
C1367      C1447   1.519       .  S
C1368      H1371   1.084       .  S
C1372      C1373   1.397       .  A
C1372      C1377   1.407       .  A
C1372      C1394   1.498       .  S
C1373      C1374   1.413       .  A
C1373      H1378   1.077       .  S
C1374      C1375   1.424       .  A
C1374      C1405   1.495       .  S
C1375      C1376   1.420       .  A
C1375      H1379   1.083       .  S
C1376      C1377   1.410       .  A
C1376      C1420   1.507       .  S
C1377      H1380   1.075       .  S
O1381     Ni1389   1.906       .  S
O1382     Ni1389   1.928       .  S
O1383      C1393   1.279       .  A
O1384     Ni1389   1.916       .  S
O1384      C1394   1.280       .  A
O1385      C1394   1.288       .  A
O1386     Ni1390   1.955       .  S
O1386      C1393   1.288       .  A
O1387     Ni1390   1.896       .  S
O1387      C1392   1.280       .  A
O1388     Ni1390   1.901       .  S
O1388      C1391   1.274   1_655  A
C1391      C1516   1.464       .  S
C1392      C1525   1.484       .  S
O1395      C1405   1.285       .  A
O1396     Ni1403   1.959       .  S
O1396      C1406   1.290       .  A
O1397     Ni1403   1.870       .  S
O1397      C1407   1.275       .  A
O1398     Ni1403   1.898       .  S
O1398      C1408   1.279   1_556  A
O1399     Ni1404   1.894       .  S
O1400     Ni1404   1.870       .  S
O1401      C1406   1.285       .  A
O1402     Ni1404   1.933       .  S
O1402      C1405   1.286       .  A
C1407      C1504   1.437       .  S
C1408      C1489   1.486       .  S
O1409      C1419   1.290       .  A
O1410     Ni1417   1.949       .  S
O1410      C1420   1.285       .  A
O1411     Ni1417   1.925       .  S
O1412     Ni1417   1.922       .  S
O1413     Ni1418   1.875       .  S
O1413      C1422   1.271       .  A
O1414     Ni1418   1.879   1_545  S
O1414      C1421   1.272       .  A
O1415      C1420   1.287       .  A
O1416     Ni1418   1.946       .  S
O1416      C1419   1.288       .  A
C1421      C1477   1.477       .  S
C1422      C1468   1.466       .  S
O1423      C1433   1.291       .  A
O1424     Ni1431   1.947       .  S
O1424      C1434   1.288       .  A
O1425     Ni1431   1.856       .  S
O1426     Ni1431   1.888       .  S
O1427     Ni1432   1.918   1_455  S
O1427      C1436   1.289       .  A
O1428     Ni1432   1.931       .  S
O1428      C1435   1.281       .  A
O1429      C1434   1.283       .  A
O1430     Ni1432   1.944       .  S
O1430      C1433   1.282       .  A
C1435      C1528   1.465       .  S
C1436      C1513   1.461       .  S
O1437      C1447   1.292       .  A
O1438     Ni1445   1.933       .  S
O1438      C1448   1.288       .  A
O1439     Ni1445   1.892       .  S
O1440     Ni1445   1.850       .  S
O1441     Ni1446   1.909       .  S
O1441      C1450   1.274       .  A
O1442     Ni1446   1.893   1_545  S
O1442      C1449   1.287       .  A
O1443      C1448   1.281       .  A
O1444     Ni1446   1.939       .  S
O1444      C1447   1.285       .  A
C1449      C1480   1.467       .  S
C1450      C1465   1.450       .  S
O1451     Ni1459   1.920       .  S
O1451      C1461   1.283       .  A
O1452      C1462   1.286       .  A
O1453     Ni1459   1.855   1_554  S
O1454     Ni1459   1.861       .  S
O1455     Ni1460   1.873       .  S
O1455      C1464   1.281       .  A
O1456     Ni1460   1.917       .  S
O1456      C1463   1.275       .  A
O1457     Ni1460   1.937       .  S
O1457      C1462   1.283       .  A
O1458      C1461   1.284       .  A
C1463      C1492   1.467       .  S
C1464      C1501   1.412       .  S
C1465      C1470   1.410       .  A
C1466      H1475   1.085       .  S
C1467      S1471   1.810       .  S
C1468      C1469   1.405       .  A
C1469      H1476   1.083       .  S
C1470      S1472   1.798       .  S
S1471      H1474   1.408       .  S
S1472      H1473   1.407       .  S
C1477      C1482   1.436       .  A
C1478      C1479   1.406       .  A
C1478      H1487   1.083       .  S
C1479      S1483   1.796       .  S
C1480      C1481   1.390       .  A
C1481      C1482   1.403       .  A
C1481      H1488   1.082       .  S
C1482      S1484   1.806       .  S
S1483      H1486   1.407       .  S
S1484      H1485   1.406       .  S
C1489      C1494   1.428       .  A
C1490      H1499   1.082       .  S
C1491      C1492   1.405       .  A
C1491      S1495   1.797       .  S
C1493      H1500   1.084       .  S
C1494      S1496   1.797       .  S
S1495      H1498   1.407   1_655  S
S1496      H1497   1.407       .  S
C1501      C1502   1.392       .  A
C1502      C1503   1.383       .  A
C1502      H1511   1.082       .  S
C1503      S1507   1.813       .  S
C1504      C1505   1.402       .  A
C1505      C1506   1.379       .  A
C1505      H1512   1.083       .  S
C1506      S1508   1.803       .  S
S1507      H1510   1.405       .  S
S1508      H1509   1.401       .  S
C1513      C1514   1.404       .  A
C1514      H1523   1.084       .  S
C1515      C1516   1.412       .  A
C1515      S1519   1.799   1_455  S
C1517      H1524   1.079       .  S
C1518      S1520   1.798       .  S
S1519      H1522   1.407       .  S
S1520      H1521   1.400       .  S
C1525      C1526   1.411       .  A
C1526      C1527   1.400       .  A
C1526      H1535   1.084       .  S
C1527      C1528   1.406       .  A
C1527      S1531   1.802       .  S
C1529      C1530   1.412       .  A
C1529      H1536   1.083       .  S
C1530      S1532   1.797       .  S
S1531      H1534   1.402       .  S
S1532      H1533   1.407       .  S
