geometry optimzed in LAMMPS
_audit_creation_date              2020-12-01 
_audit_creation_method            'lammps2cif' 
_symmetry_space_group_name_H-M    'P1' 
_symmetry_Int_Tables_number       1 
_symmetry_cell_setting            triclinic 
loop_ 
_symmetry_equiv_pos_as_xyz 
  x,y,z 
_cell_length_a                    50.14742258 
_cell_length_b                    50.063857796192806 
_cell_length_c                    50.06058852533383 
_cell_angle_alpha                 90.00533698903035 
_cell_angle_beta                  89.88139245353074 
_cell_angle_gamma                 90.14454128742811 
loop_ 
_atom_site_label 
_atom_site_type_symbol 
_atom_site_fract_x 
_atom_site_fract_y 
_atom_site_fract_z 
_atom_site_charge 
Fe1        Fe  0.77136570  0.82290217  0.60093205     1.65800
Fe2        Fe  0.73021600  0.84498063  0.55204545     1.73200
Fe3        Fe  0.77582181  0.79599824  0.53938108     1.54400
O4          O  0.81356768  0.80292662  0.55549936    -0.82000
O5          O  0.71085842  0.81550162  0.53165505    -0.80300
O6          O  0.80968817  0.83203231  0.58890313    -0.84500
O7          O  0.78134552  0.78288625  0.60264171    -0.79300
O8          O  0.78328205  0.82560904  0.51225549    -0.81100
O9          O  0.70691813  0.83495508  0.58518760    -0.83900
C10         C  0.77699282  0.76242002  0.58838837     0.96900
C11         C  0.82393852  0.81861456  0.57266753     1.04300
O12         O  0.75902984  0.82148424  0.56393532    -1.12800
O13         O  0.74441388  0.87872114  0.57047333    -0.75300
O14         O  0.76356532  0.86304249  0.60695601    -0.78800
O15         O  0.76947565  0.76409666  0.56438105    -0.79500
C16         C  0.75373580  0.88210234  0.59363166     0.95800
O17         O  0.73354440  0.81343251  0.61399728    -0.77400
O18         O  0.75141504  0.85629857  0.51807728    -0.82600
C19         C  0.71741390  0.79461446  0.51914955     0.98400
C20         C  0.77171727  0.84716331  0.50571687     1.04300
O21         O  0.74090618  0.78531478  0.51975447    -0.78300
C22         C  0.71059250  0.82109383  0.60630226     1.02600
Fe23       Fe  0.81225453  0.89564485  0.27174281     1.65800
Fe24       Fe  0.79516582  0.96007019  0.28062292     1.73200
Fe25       Fe  0.83909305  0.94284137  0.23189243     1.54400
O26         O  0.87124393  0.92305541  0.24795839    -0.82000
O27         O  0.78783706  0.98268382  0.24666738    -0.80300
O28         O  0.85143458  0.88638848  0.26290663    -0.84500
O29         O  0.80046959  0.88537901  0.23390904    -0.79300
O30         O  0.85223564  0.97762171  0.25078861    -0.81100
O31         O  0.75934903  0.94050379  0.27420204    -0.83900
C32         C  0.81134765  0.89104726  0.21174045     0.96900
C33         C  0.87222391  0.89895045  0.25560022     1.04300
O34         O  0.81558502  0.93295512  0.26142989    -1.12800
O35         O  0.79938364  0.94086888  0.31701053    -0.75300
O36         O  0.82343386  0.90406066  0.31033399    -0.78800
O37         O  0.82864793  0.90951955  0.20909955    -0.79500
C38         C  0.81218001  0.92076764  0.32568889     0.95800
O39         O  0.77238418  0.89867106  0.28157278    -0.77400
O40         O  0.82922650  0.98168742  0.28873990    -0.82600
C41         C  0.79251049  0.97995690  0.22185927     0.98400
C42         C  0.84803597  0.98884247  0.27326604     1.04300
O43         O  0.80906281  0.96306974  0.21293286    -0.78300
C44         C  0.75427334  0.91603500  0.27851666     1.02600
Fe45       Fe  0.09612148  0.78566473  0.68139732     1.65800
Fe46       Fe  0.03177719  0.79486539  0.69734952     1.73200
Fe47       Fe  0.04979622  0.74323615  0.65704809     1.54400
O48         O  0.07070187  0.75620803  0.62381363    -0.82000
O49         O  0.00904344  0.76143733  0.70724209    -0.80300
O50         O  0.10648682  0.77311878  0.64347606    -0.84500
O51         O  0.10635173  0.74903595  0.69646779    -0.79300
O52         O  0.01560718  0.76131035  0.64163102    -0.81100
O53         O  0.05100506  0.79053483  0.73358422    -0.83900
C54         C  0.10136245  0.72600985  0.68703822     0.96900
C55         C  0.09495462  0.76345781  0.62310078     1.04300
O56         O  0.05909054  0.77458035  0.67837045    -1.12800
O57         O  0.05090198  0.83133128  0.69042503    -0.75300
O58         O  0.08758255  0.82293777  0.66673725    -0.78800
O59         O  0.08286127  0.72174755  0.67012369    -0.79500
C60         C  0.07096419  0.83918897  0.67683494     0.95800
O61         O  0.09224496  0.79970537  0.72005724    -0.77400
O62         O  0.01073034  0.80042324  0.66261789    -0.82600
C63         C  0.01201278  0.73638023  0.70440798     0.98400
C64         C  0.00445914  0.78404528  0.64428708     1.04300
O65         O  0.02871284  0.72653279  0.68815400    -0.78300
C66         C  0.07492848  0.79714393  0.73837513     1.02600
Fe67       Fe  0.21641184  0.19130976  0.38662646     1.65800
Fe68       Fe  0.21102354  0.20816166  0.45160104     1.73200
Fe69       Fe  0.25411227  0.15927056  0.43223901     1.54400
O70         O  0.23406296  0.12922804  0.41202277    -0.82000
O71         O  0.24606503  0.21137524  0.47325035    -0.80300
O72         O  0.21982473  0.15138293  0.37654634    -0.84500
O73         O  0.25508580  0.19835751  0.37531138    -0.79300
O74         O  0.23456976  0.14775503  0.46707676    -0.81100
O75         O  0.22068680  0.24346318  0.43265022    -0.83900
C76         C  0.27601822  0.18510830  0.38026404     0.96900
C77         C  0.22517035  0.12959621  0.38827752     1.04300
O78         O  0.22721749  0.18619911  0.42356870    -1.12800
O79         O  0.17363469  0.20819709  0.43379301    -0.75300
O80         O  0.17690586  0.18485585  0.39601132    -0.78800
O81         O  0.27728204  0.16760464  0.39863618    -0.79500
C82         C  0.16314958  0.19660588  0.41378210     0.95800
O83         O  0.21195706  0.23214009  0.39053768    -0.77400
O84         O  0.19992499  0.17490757  0.47294696    -0.82600
C85         C  0.27008408  0.20386906  0.47029782     0.98400
C86         C  0.21337313  0.15444773  0.47937169     1.04300
O87         O  0.27695559  0.18663500  0.45302454    -0.78300
C88         C  0.21661692  0.24948269  0.40841714     1.02600
Fe89       Fe  0.17294410  0.11625102  0.72079481     1.65800
Fe90       Fe  0.14359155  0.06695364  0.75750908     1.73200
Fe91       Fe  0.18962594  0.05123526  0.70891439     1.54400
O92         O  0.18256447  0.06953168  0.67239511    -0.82000
O93         O  0.17124710  0.04247323  0.77494328    -0.80300
O94         O  0.16742119  0.11047896  0.68052696    -0.84500
O95         O  0.21360860  0.11400525  0.71639144    -0.79300
O96         O  0.15676400  0.02736528  0.70230889    -0.81100
O97         O  0.15576688  0.09669184  0.78374519    -0.83900
C98         C  0.23112540  0.09600446  0.71413390     0.96900
C99         C  0.17386301  0.09202293  0.66440642     1.04300
O100        O  0.16866722  0.07805759  0.72899415    -1.12800
O101        O  0.11262460  0.09029912  0.74363891    -0.75300
O102        O  0.13284144  0.12477254  0.72448069    -0.78800
O103        O  0.22549959  0.07137962  0.71263169    -0.79500
C104        C  0.11193038  0.11330642  0.73302225     0.95800
O105        O  0.17955668  0.12578027  0.75999203    -0.77400
O106        O  0.12841298  0.03526164  0.73574244    -0.82600
C107        C  0.19097142  0.02881830  0.76695918     0.98400
C108        C  0.13556863  0.02221267  0.71520509     1.04300
O109        O  0.19950746  0.02975828  0.74303157    -0.78300
C110        C  0.17056718  0.11723950  0.78207720     1.02600
Fe111      Fe  0.88427968  0.22803658  0.31538128     1.65800
Fe112      Fe  0.93197191  0.27029410  0.33944550     1.73200
Fe113      Fe  0.94779657  0.22346735  0.29207432     1.54400
O114        O  0.93170909  0.18524566  0.29653459    -0.82000
O115        O  0.95222651  0.29064776  0.30977864    -0.80300
O116        O  0.89479409  0.18871595  0.32071458    -0.84500
O117        O  0.88383762  0.22377149  0.27444626    -0.79300
O118        O  0.97313071  0.21629082  0.32350867    -0.81100
O119        O  0.89878083  0.29317367  0.33012295    -0.83900
C120        C  0.90003877  0.22676726  0.25517002     0.96900
C121        C  0.91218899  0.17465001  0.30889080     1.04300
O122        O  0.92139156  0.24064952  0.31575651    -1.12800
O123        O  0.91263559  0.25465458  0.37258412    -0.75300
O124        O  0.87874784  0.23147295  0.35597918    -0.78800
O125        O  0.92497366  0.22951349  0.25837510    -0.79500
C126        C  0.89065232  0.24234907  0.37548619     0.95800
O127        O  0.86976777  0.26578622  0.31016251    -0.77400
O128        O  0.96671548  0.25086155  0.35112060    -0.82600
C129        C  0.96733110  0.28282663  0.29105735     0.98400
C130        C  0.97968121  0.23027808  0.34368273     1.04300
O131        O  0.96821985  0.25858963  0.28363232    -0.78300
C132        C  0.87678662  0.28869095  0.31835455     1.02600
Fe133      Fe  0.71156189  0.32303691  0.59877958     1.65800
Fe134      Fe  0.70392607  0.30710668  0.53426435     1.73200
Fe135      Fe  0.75536540  0.34712445  0.55350610     1.54400
O136        O  0.74226061  0.38035239  0.57427029    -0.82000
O137        O  0.73757362  0.29861022  0.51129365    -0.80300
O138        O  0.72256943  0.36137379  0.60907253    -0.84500
O139        O  0.74785195  0.30890850  0.61051802    -0.79300
O140        O  0.73763539  0.36275317  0.51901127    -0.81100
O141        O  0.70880051  0.27073427  0.55310478    -0.83900
C142        C  0.77130010  0.31718847  0.60575544     0.96900
C143        C  0.73280051  0.38162995  0.59776215     1.04300
O144        O  0.72371682  0.32594416  0.56209879    -1.12800
O145        O  0.66690998  0.31216788  0.55322752    -0.75300
O146        O  0.67441285  0.33682602  0.58917426    -0.78800
O147        O  0.77643942  0.33355525  0.58687605    -0.79500
C148        C  0.65843121  0.32528058  0.57336459     0.95800
O149        O  0.69885062  0.28399745  0.59438743    -0.77400
O150        O  0.69821916  0.34231483  0.51402376    -0.82600
C151        C  0.76256692  0.30122667  0.51464554     0.98400
C152        C  0.71491046  0.36043993  0.50773555     1.04300
O153        O  0.77227944  0.31619681  0.53254675    -0.78300
C154        C  0.70192626  0.26581312  0.57699996     1.02600
Fe155      Fe  0.66613608  0.39528251  0.27371703     1.65800
Fe156      Fe  0.64149132  0.44403603  0.23372916     1.73200
Fe157      Fe  0.68963765  0.45878791  0.27925653     1.54400
O158        O  0.67756828  0.44822792  0.31742944    -0.82000
O159        O  0.66766574  0.47237158  0.21837851    -0.80300
O160        O  0.66874967  0.40475432  0.31384197    -0.84500
O161        O  0.70693141  0.39290837  0.27066256    -0.79300
O162        O  0.66057708  0.48811148  0.27895574    -0.81100
O163        O  0.65713282  0.41595693  0.20740026    -0.83900
C164        C  0.72578178  0.40863442  0.27684906     0.96900
C165        C  0.67223429  0.42565548  0.32784291     1.04300
O166        O  0.66568004  0.43266734  0.26240025    -1.12800
O167        O  0.61142704  0.41715644  0.24360064    -0.75300
O168        O  0.62527218  0.39243202  0.27763212    -0.78800
O169        O  0.72194026  0.43316986  0.28182941    -0.79500
C170        C  0.60757182  0.39888852  0.26078513     0.95800
O171        O  0.66375168  0.38161041  0.23500254    -0.77400
O172        O  0.62424848  0.47293702  0.25809548    -0.82600
C173        C  0.69170065  0.47929670  0.22244370     0.98400
C174        C  0.63628118  0.49052266  0.27201930     1.04300
O175        O  0.70452797  0.47180537  0.24291127    -0.78300
C176        C  0.66202347  0.39135498  0.21161170     1.02600
Fe177      Fe  0.31852064  0.61661703  0.72102275     1.65800
Fe178      Fe  0.29144112  0.55534707  0.70912542     1.73200
Fe179      Fe  0.33649708  0.56419845  0.75931723     1.54400
O180        O  0.36852864  0.58977192  0.75266484    -0.82000
O181        O  0.27432729  0.53864414  0.74288212    -0.80300
O182        O  0.35935545  0.61504551  0.71745183    -0.84500
O183        O  0.32161449  0.62804061  0.76078669    -0.79300
O184        O  0.35336537  0.53556031  0.73491329    -0.81100
O185        O  0.26070664  0.58336415  0.70905352    -0.83900
C186        C  0.31896468  0.61642796  0.78322989     0.96900
C187        C  0.37508638  0.60756033  0.73573728     1.04300
O188        O  0.31550646  0.57856771  0.72958515    -1.12800
O189        O  0.30482064  0.56899148  0.67240862    -0.75300
O190        O  0.31516064  0.61142981  0.68011738    -0.78800
O191        O  0.32038966  0.59126826  0.78575669    -0.79500
C192        C  0.31046104  0.59229569  0.66414297     0.95800
O193        O  0.27817407  0.62145558  0.72405070    -0.77400
O194        O  0.31987646  0.52506631  0.70722853    -0.82600
C195        C  0.28457185  0.53080506  0.76461940     0.98400
C196        C  0.34283628  0.52058225  0.71724783     1.04300
O197        O  0.30790490  0.53725303  0.77174935    -0.78300
C198        C  0.25836997  0.60762551  0.71636877     1.02600
Fe199      Fe  0.38423386  0.28323511  0.67418420     1.65800
Fe200      Fe  0.43228789  0.23947374  0.65585069     1.73200
Fe201      Fe  0.44695278  0.29190030  0.69642775     1.54400
O202        O  0.42854200  0.32870767  0.68913386    -0.82000
O203        O  0.45029250  0.22328759  0.68883232    -0.80300
O204        O  0.39479508  0.32087476  0.66172971    -0.84500
O205        O  0.38435420  0.29568075  0.71360767    -0.79300
O206        O  0.47049382  0.29751461  0.66316224    -0.81100
O207        O  0.39824432  0.21791444  0.66664593    -0.83900
C208        C  0.40010640  0.29373161  0.73335593     0.96900
C209        C  0.40962928  0.33701546  0.67436094     1.04300
O210        O  0.42119428  0.27146627  0.67532678    -1.12800
O211        O  0.41492222  0.25157913  0.62054210    -0.75300
O212        O  0.37853973  0.27252072  0.63471263    -0.78800
O213        O  0.42448593  0.28737980  0.73079274    -0.79500
C214        C  0.39215462  0.26168927  0.61628708     0.95800
O215        O  0.37095251  0.24653463  0.68685590    -0.77400
O216        O  0.46791188  0.25748308  0.64327117    -0.82600
C217        C  0.46689188  0.23346147  0.70487401     0.98400
C218        C  0.47853975  0.28051772  0.64609512     1.04300
O219        O  0.46950590  0.25860510  0.70755012    -0.78300
C220        C  0.37733742  0.22291119  0.68028081     1.02600
Fe221      Fe  0.60006660  0.73143645  0.31472003     1.65800
Fe222      Fe  0.53623123  0.72271690  0.29287716     1.73200
Fe223      Fe  0.55108828  0.77247306  0.33764346     1.54400
O224        O  0.57621777  0.76205099  0.36918038    -0.82000
O225        O  0.51875532  0.75693479  0.27845867    -0.80300
O226        O  0.60183438  0.72853759  0.35538635    -0.84500
O227        O  0.61430468  0.77043868  0.31578826    -0.79300
O228        O  0.52084407  0.75028978  0.35515847    -0.81100
O229        O  0.56096196  0.72278061  0.25956677    -0.83900
C230        C  0.60415002  0.79364645  0.31646778     0.96900
C231        C  0.59386748  0.74432224  0.37345730     1.04300
O232        O  0.56235413  0.74214227  0.31508243    -1.12800
O233        O  0.54942126  0.68532653  0.30359542    -0.75300
O234        O  0.59220377  0.69076277  0.31350407    -0.78800
O235        O  0.57975221  0.79765517  0.32176815    -0.79500
C236        C  0.57207602  0.67592168  0.30939638     0.95800
O237        O  0.60180793  0.73328882  0.27390553    -0.77400
O238        O  0.50908137  0.72047657  0.32398043    -0.82600
C239        C  0.51460153  0.77998487  0.28792801     0.98400
C240        C  0.50590115  0.73155184  0.34664521     1.04300
O241        O  0.52481612  0.78787607  0.30971178    -0.78300
C242        C  0.58547612  0.72795535  0.25533256     1.02600
Fe243      Fe  0.26613086  0.68665280  0.38575112     1.65800
Fe244      Fe  0.22817904  0.65963311  0.43464727     1.73200
Fe245      Fe  0.27456942  0.70702696  0.45018861     1.54400
O246        O  0.31234095  0.69776452  0.43619481    -0.82000
O247        O  0.21289580  0.68418022  0.46372549    -0.80300
O248        O  0.30640396  0.69148839  0.39281154    -0.84500
O249        O  0.26049908  0.72723239  0.38569086    -0.79300
O250        O  0.27798405  0.67566541  0.47678704    -0.81100
O251        O  0.20133302  0.67650094  0.40817411    -0.83900
C252        C  0.26601670  0.74551637  0.40237727     0.96900
C253        C  0.32159455  0.69461265  0.41281166     1.04300
O254        O  0.25646675  0.68443248  0.42366018    -1.12800
O255        O  0.23864337  0.63085628  0.40684243    -0.75300
O256        O  0.27237408  0.64610580  0.38254828    -0.78800
O257        O  0.27313303  0.74079660  0.42627883    -0.79500
C258        C  0.25664955  0.62739584  0.38933134     0.95800
O259        O  0.22727726  0.68248281  0.37251023    -0.77400
O260        O  0.25276995  0.64156164  0.46257796    -0.82600
C261        C  0.21800336  0.70687853  0.47363911     0.98400
C262        C  0.26961118  0.65171789  0.47872184     1.04300
O263        O  0.23929414  0.71942732  0.46797776    -0.78300
C264        C  0.20448930  0.68169523  0.38354747     1.02600
Fe265      Fe  0.81039300  0.61243227  0.77367194     1.65800
Fe266      Fe  0.83742699  0.56302556  0.73618205     1.73200
Fe267      Fe  0.78933657  0.54824142  0.78216832     1.54400
O268        O  0.80091549  0.56124143  0.81981931    -0.82000
O269        O  0.81234037  0.53365932  0.72168960    -0.80300
O270        O  0.80950184  0.60452223  0.81408101    -0.84500
O271        O  0.76962515  0.61290682  0.77148828    -0.79300
O272        O  0.81948664  0.52013609  0.78326628    -0.81100
O273        O  0.82102633  0.58916339  0.70878888    -0.83900
C274        C  0.75129710  0.59667384  0.77777607     0.96900
C275        C  0.80657819  0.58423685  0.82909660     1.04300
O276        O  0.81240435  0.57459799  0.76413998    -1.12800
O277        O  0.86678213  0.59066551  0.74548278    -0.75300
O278        O  0.85102792  0.61751557  0.77679325    -0.78800
O279        O  0.75579906  0.57247323  0.78368740    -0.79500
C280        C  0.86982379  0.60984600  0.76177253     0.95800
O281        O  0.81060258  0.62422190  0.73428988    -0.77400
O282        O  0.85520679  0.53586620  0.76161415    -0.82600
C283        C  0.78865076  0.52567456  0.72580751     0.98400
C284        C  0.84387246  0.51855534  0.77639458     1.04300
O285        O  0.77543476  0.53273859  0.74629828    -0.78300
C286        C  0.81280627  0.61300058  0.71161467     1.02600
Fe287      Fe  0.88280646  0.28525317  0.82352499     1.65800
Fe288      Fe  0.94359381  0.28929867  0.79328245     1.73200
Fe289      Fe  0.93185929  0.24293557  0.84108034     1.54400
O290        O  0.90593613  0.24964858  0.87264522    -0.82000
O291        O  0.95607595  0.25320718  0.77755344    -0.80300
O292        O  0.88494994  0.28735220  0.86444656    -0.84500
O293        O  0.86855380  0.24609228  0.82442991    -0.79300
O294        O  0.96050838  0.26719528  0.85811277    -0.81100
O295        O  0.91541244  0.29038841  0.76300321    -0.83900
C296        C  0.87870946  0.22290943  0.82135126     0.96900
C297        C  0.89022422  0.26809682  0.87978097     1.04300
O298        O  0.91941403  0.27281210  0.81919445    -1.12800
O299        O  0.93393293  0.32765679  0.80475349    -0.75300
O300        O  0.89321766  0.32520985  0.82257989    -0.78800
O301        O  0.90360611  0.21837791  0.82370629    -0.79500
C302        C  0.91337092  0.33851647  0.81475051     0.95800
O303        O  0.87605710  0.28524418  0.78320121    -0.77400
O304        O  0.97396264  0.28993771  0.82174905    -0.82600
C305        C  0.96546410  0.23349586  0.79012831     0.98400
C306        C  0.97676654  0.28283231  0.84614118     1.04300
O307        O  0.96019281  0.22940597  0.81446742    -0.78300
C308        C  0.89014787  0.28832457  0.76236831     1.02600
Fe309      Fe  0.76628730  0.68293045  0.10706580     1.65800
Fe310      Fe  0.77634424  0.70494809  0.04295006     1.73200
Fe311      Fe  0.72870556  0.65732473  0.05619418     1.54400
O312        O  0.74162886  0.62539082  0.07899438    -0.82000
O313        O  0.74258207  0.71502023  0.02157865    -0.80300
O314        O  0.76551593  0.64194607  0.11243892    -0.84500
O315        O  0.72709712  0.68601769  0.11851433    -0.79300
O316        O  0.75170338  0.64339044  0.02484069    -0.81100
O317        O  0.77062575  0.73919741  0.06566780    -0.83900
C318        C  0.70481303  0.67990718  0.10834174     0.96900
C319        C  0.75451238  0.62241852  0.10061206     1.04300
O320        O  0.75720113  0.68164320  0.06871158    -1.12800
O321        O  0.81310872  0.69910789  0.06027676    -0.75300
O322        O  0.80670140  0.68089621  0.10041682    -0.78800
O323        O  0.70231354  0.66889425  0.08569185    -0.79500
C324        C  0.82178139  0.69008861  0.08223788     0.95800
O325        O  0.76777468  0.72393039  0.10739550    -0.77400
O326        O  0.78422629  0.67317867  0.01765984    -0.82600
C327        C  0.71895125  0.70622165  0.01965748     0.98400
C328        C  0.77233687  0.65135515  0.01231678     1.04300
O329        O  0.71105637  0.68565258  0.03213640    -0.78300
C330        C  0.76861638  0.74296010  0.09070498     1.02600
Fe331      Fe  0.17688725  0.39601175  0.22478518     1.65800
Fe332      Fe  0.19847167  0.45886688  0.20957085     1.73200
Fe333      Fe  0.15795328  0.44809088  0.26348209     1.54400
O334        O  0.12626490  0.42171775  0.25816560    -0.82000
O335        O  0.21715497  0.47715179  0.24151230    -0.80300
O336        O  0.13557122  0.39458513  0.22418529    -0.84500
O337        O  0.17686851  0.38482724  0.26460356    -0.79300
O338        O  0.13846861  0.47631164  0.24057304    -0.81100
O339        O  0.23056473  0.43275174  0.20682163    -0.83900
C340        C  0.17912758  0.39673447  0.28687521     0.96900
C341        C  0.11980290  0.40297718  0.24223785     1.04300
O342        O  0.17769914  0.43445135  0.23245190    -1.12800
O343        O  0.18287083  0.44392676  0.17454131    -0.75300
O344        O  0.17746793  0.40087327  0.18372446    -0.78800
O345        O  0.17619903  0.42174475  0.28926958    -0.79500
C346        C  0.17921656  0.42000007  0.16714773     0.95800
O347        O  0.21794985  0.39399496  0.22509455    -0.77400
O348        O  0.16851261  0.48737395  0.20931240    -0.82600
C349        C  0.20888020  0.48351970  0.26457913     0.98400
C350        C  0.14641673  0.49093450  0.22133426     1.04300
O351        O  0.18680481  0.47550796  0.27398768    -0.78300
C352        C  0.23548293  0.40902377  0.21449106     1.02600
Fe353      Fe  0.10036397  0.72376854  0.17320513     1.65800
Fe354      Fe  0.05239374  0.76475439  0.14942826     1.73200
Fe355      Fe  0.03619906  0.71600330  0.19478930     1.54400
O356        O  0.04920649  0.67799543  0.18411390    -0.82000
O357        O  0.02430471  0.77951350  0.17520385    -0.80300
O358        O  0.09189999  0.68363681  0.17368257    -0.84500
O359        O  0.10115252  0.72504279  0.21403044    -0.79300
O360        O  0.00942974  0.71461437  0.16327850    -0.81100
O361        O  0.07997665  0.78992989  0.16693525    -0.83900
C362        C  0.08469841  0.72068746  0.23279040     0.96900
C363        C  0.07191638  0.66866876  0.17778613     1.04300
O364        O  0.06284615  0.73463663  0.17243670    -1.12800
O365        O  0.07896652  0.75543586  0.11931227    -0.75300
O366        O  0.10380714  0.72137189  0.13224964    -0.78800
O367        O  0.06015727  0.71576031  0.22865196    -0.79500
C368        C  0.09655049  0.73792528  0.11457557     0.95800
O369        O  0.11419685  0.76259968  0.17342090    -0.77400
O370        O  0.02351847  0.74214522  0.13080719    -0.82600
C371        C  0.01462054  0.77324609  0.19766677     0.98400
C372        C  0.00735444  0.72480230  0.14003346     1.04300
O373        O  0.01957361  0.75116945  0.20900365    -0.78300
C374        C  0.10415373  0.78586726  0.17312708     1.02600
Fe375      Fe  0.21497880  0.32775424  0.88571742     1.65800
Fe376      Fe  0.25509846  0.35227784  0.93449316     1.73200
Fe377      Fe  0.20723661  0.30558696  0.94916766     1.54400
O378        O  0.17002222  0.31169609  0.93136067    -0.82000
O379        O  0.27368263  0.32273735  0.95609913    -0.80300
O380        O  0.17616148  0.33675198  0.89502123    -0.84500
O381        O  0.20557204  0.28767821  0.88596941    -0.79300
O382        O  0.20010594  0.33737859  0.97450424    -0.81100
O383        O  0.27888105  0.34130664  0.90229087    -0.83900
C384        C  0.20749167  0.26834539  0.90215550     0.96900
C385        C  0.16098398  0.32463310  0.91139739     1.04300
O386        O  0.22575178  0.32871362  0.92328351    -1.12800
O387        O  0.24102487  0.38544252  0.91421742    -0.75300
O388        O  0.22219047  0.36768451  0.87844586    -0.78800
O389        O  0.21289905  0.27159150  0.92661899    -0.79500
C390        C  0.23125377  0.38769567  0.89100077     0.95800
O391        O  0.25308702  0.31812284  0.87423169    -0.77400
O392        O  0.23448764  0.36505452  0.96805157    -0.82600
C393        C  0.26577687  0.30295456  0.96978600     0.98400
C394        C  0.21364752  0.35797544  0.98079343     1.04300
O395        O  0.24161656  0.29528238  0.96995189    -0.78300
C396        C  0.27579204  0.32642823  0.88187363     1.02600
Fe397      Fe  0.60140044  0.78660114  0.81901933     1.65800
Fe398      Fe  0.55218274  0.74475522  0.84000879     1.73200
Fe399      Fe  0.53936088  0.79318135  0.79402038     1.54400
O400        O  0.55724149  0.83021834  0.79944479    -0.82000
O401        O  0.53281743  0.72609330  0.80893734    -0.80300
O402        O  0.59060944  0.82526062  0.82811708    -0.84500
O403        O  0.60245212  0.79602284  0.77879876    -0.79300
O404        O  0.51412611  0.80128137  0.82543963    -0.81100
O405        O  0.58555254  0.72179582  0.83043112    -0.83900
C406        C  0.58748785  0.79256623  0.75866008     0.96900
C407        C  0.57526078  0.83999005  0.81436346     1.04300
O408        O  0.56423826  0.77473076  0.81788548    -1.12800
O409        O  0.57049512  0.75854297  0.87427001    -0.75300
O410        O  0.60699413  0.77863696  0.85915614    -0.78800
O411        O  0.56308125  0.78612281  0.76086654    -0.79500
C412        C  0.59371561  0.76790989  0.87788460     0.95800
O413        O  0.61457443  0.74884911  0.80982002    -0.77400
O414        O  0.51738699  0.76504481  0.85141546    -0.82600
C415        C  0.51776166  0.73509217  0.79083003     0.98400
C416        C  0.50621655  0.78708239  0.84500263     1.04300
O417        O  0.51720829  0.75960031  0.78459399    -0.78300
C418        C  0.60716307  0.72576257  0.81751702     1.02600
Fe419      Fe  0.26251786  0.82111800  0.88572098     1.65800
Fe420      Fe  0.27839277  0.80563893  0.95008855     1.73200
Fe421      Fe  0.22558116  0.84765402  0.93649672     1.54400
O422        O  0.23595590  0.87968421  0.91225699    -0.82000
O423        O  0.24585564  0.79237478  0.97214383    -0.80300
O424        O  0.25733930  0.86098932  0.87810654    -0.84500
O425        O  0.22337972  0.81340454  0.87699127    -0.79300
O426        O  0.24759836  0.86485588  0.96733465    -0.81100
O427        O  0.27748797  0.76977104  0.92958220    -0.83900
C428        C  0.20094980  0.82048479  0.88622137     0.96900
C429        C  0.24673924  0.88104777  0.88929388     1.04300
O430        O  0.25558698  0.82490872  0.92416442    -1.12800
O431        O  0.31392482  0.81583880  0.93090656    -0.75300
O432        O  0.30281592  0.82789224  0.88964257    -0.78800
O433        O  0.19891359  0.83378061  0.90774291    -0.79500
C434        C  0.32020585  0.82319002  0.90736170     0.95800
O435        O  0.26816575  0.78065771  0.88754147    -0.77400
O436        O  0.28270228  0.83869089  0.97421129    -0.82600
C437        C  0.22135944  0.79860599  0.97391793     0.98400
C438        C  0.26909398  0.85932961  0.97959857     1.04300
O439        O  0.21124855  0.81812919  0.96138395    -0.78300
C440        C  0.27408391  0.76368464  0.90525061     1.02600
Fe441      Fe  0.67299398  0.11546259  0.76574886     1.65800
Fe442      Fe  0.69561480  0.05207772  0.77196900     1.73200
Fe443      Fe  0.64827713  0.06661661  0.72530915     1.54400
O444        O  0.61550431  0.08612466  0.74064650    -0.82000
O445        O  0.70295293  0.02982423  0.73780307    -0.80300
O446        O  0.63235291  0.12170264  0.76112540    -0.84500
O447        O  0.67987123  0.12811865  0.72715327    -0.79300
O448        O  0.63639231  0.03254142  0.74602397    -0.81100
O449        O  0.72960924  0.07428815  0.76419312    -0.83900
C450        C  0.67158251  0.12034903  0.70444731     0.96900
C451        C  0.61278772  0.10886563  0.75139154     1.04300
O452        O  0.67217166  0.07804018  0.75429067    -1.12800
O453        O  0.69258826  0.07003912  0.80924976    -0.75300
O454        O  0.66652056  0.10572080  0.80550231    -0.78800
O455        O  0.65790005  0.09911951  0.70147510    -0.79500
C456        C  0.67975640  0.08931451  0.81957821     0.95800
O457        O  0.71392295  0.11526846  0.77182215    -0.77400
O458        O  0.66341245  0.02814365  0.78125887    -0.82600
C459        C  0.69586988  0.03071540  0.71350974     0.98400
C460        C  0.64301087  0.02122740  0.76783735     1.04300
O461        O  0.67762278  0.04604916  0.70537758    -0.78300
C462        C  0.73309679  0.09894976  0.76901251     1.02600
Fe463      Fe  0.38381061  0.22098002  0.16661551     1.65800
Fe464      Fe  0.44662212  0.21746645  0.19237631     1.73200
Fe465      Fe  0.43247708  0.26168601  0.14277027     1.54400
O466        O  0.40634639  0.25131053  0.11216364    -0.82000
O467        O  0.46003081  0.25410645  0.20577298    -0.80300
O468        O  0.38240732  0.21670021  0.12574066    -0.84500
O469        O  0.36953746  0.25974023  0.16439570    -0.79300
O470        O  0.46150200  0.23735058  0.12646799    -0.81100
O471        O  0.42051213  0.21699093  0.22443096    -0.83900
C472        C  0.37983944  0.28302682  0.16407431     0.96900
C473        C  0.38885924  0.23342259  0.10791659     1.04300
O474        O  0.42096712  0.23314588  0.16724075    -1.12800
O475        O  0.43622058  0.17887137  0.18280423    -0.75300
O476        O  0.39394004  0.18107766  0.16923565    -0.78800
O477        O  0.40427109  0.28728098  0.15853761    -0.79500
C478        C  0.41460147  0.16789166  0.17557736     0.95800
O479        O  0.38010366  0.22365888  0.20738871    -0.77400
O480        O  0.47562463  0.21563451  0.16293349    -0.82600
C481        C  0.46742298  0.27439633  0.19259864     0.98400
C482        C  0.47786115  0.22200522  0.13838513     1.04300
O483        O  0.46041618  0.27802471  0.16856037    -0.78300
C484        C  0.39557284  0.22034755  0.22709654     1.02600
Fe485      Fe  0.71607762  0.17786873  0.10399077     1.65800
Fe486      Fe  0.75802081  0.16000392  0.05323792     1.73200
Fe487      Fe  0.70677256  0.20407507  0.04205728     1.54400
O488        O  0.67019294  0.19353129  0.05814523    -0.82000
O489        O  0.77409114  0.19225109  0.03327601    -0.80300
O490        O  0.67712670  0.16923539  0.09469842    -0.84500
O491        O  0.70753360  0.21788834  0.10748124    -0.79300
O492        O  0.70275458  0.17428288  0.01396887    -0.81100
O493        O  0.78158826  0.17093124  0.08571147    -0.83900
C494        C  0.70712248  0.23827698  0.09251109     0.96900
C495        C  0.66165025  0.17987122  0.07776199     1.04300
O496        O  0.72694643  0.18047580  0.06631625    -1.12800
O497        O  0.74710075  0.12464594  0.07198781    -0.75300
O498        O  0.72361001  0.13772246  0.10721307    -0.78800
O499        O  0.70896529  0.23670585  0.06729582    -0.79500
C500        C  0.73580748  0.11983255  0.09418756     0.95800
O501        O  0.75373165  0.18648412  0.11685401    -0.77400
O502        O  0.73793670  0.14735355  0.01884976    -0.82600
C503        C  0.76448394  0.21235617  0.02138847     0.98400
C504        C  0.71709526  0.15480038  0.00630985     1.04300
O505        O  0.74003327  0.21849024  0.02253714    -0.78300
C506        C  0.77704949  0.18167298  0.10831786     1.02600
Fe507      Fe  0.30915803  0.89740595  0.21893894     1.65800
Fe508      Fe  0.33218119  0.94577670  0.25997094     1.73200
Fe509      Fe  0.28715837  0.96151849  0.21115877     1.54400
O510        O  0.29835867  0.94862713  0.17311471    -0.82000
O511        O  0.30591319  0.97360776  0.27459769    -0.80300
O512        O  0.30868745  0.90586201  0.17883226    -0.84500
O513        O  0.26825688  0.89619368  0.22006498    -0.79300
O514        O  0.31813232  0.98885323  0.21050915    -0.81100
O515        O  0.31472329  0.91812341  0.28519114    -0.83900
C516        C  0.24967691  0.91253998  0.21492820     0.96900
C517        C  0.30421963  0.92572635  0.16379760     1.04300
O518        O  0.30951252  0.93499142  0.22980251    -1.12800
O519        O  0.36236288  0.91940127  0.25111460    -0.75300
O520        O  0.35028371  0.89412635  0.21698308    -0.78800
O521        O  0.25375203  0.93709323  0.20998184    -0.79500
C522        C  0.36752848  0.90156662  0.23396326     0.95800
O523        O  0.30876772  0.88381789  0.25764734    -0.77400
O524        O  0.35105824  0.97434275  0.23696938    -0.82600
C525        C  0.28327827  0.98292794  0.26867962     0.98400
C526        C  0.34154537  0.99077858  0.22016144     1.04300
O527        O  0.27229184  0.97786670  0.24639999    -0.78300
C528        C  0.30871260  0.89384766  0.28093356     1.02600
C529        C  0.41259419  0.13850824  0.17683773    -0.20200
C530        C  0.39609308  0.12418705  0.15917650     0.36000
C531        C  0.38970968  0.09753724  0.16473502    -0.26200
C532        C  0.39891071  0.08518630  0.18809228     0.02500
C533        C  0.41702521  0.09871686  0.20479188     0.27300
C534        C  0.42414510  0.12519376  0.19866586    -0.25300
N535        N  0.38501172  0.13692572  0.13612726    -0.82700
H536        H  0.37585176  0.08705710  0.15183262     0.13100
C537        C  0.38516487  0.06073603  0.19723242     0.02400
N538        N  0.42668789  0.08618237  0.22872236    -0.81200
H539        H  0.43686585  0.13616361  0.21230082     0.17900
C540        C  0.39858391  0.03620510  0.19850096    -0.26100
C541        C  0.38491208  0.01277190  0.20614775     0.36000
C542        C  0.35747802  0.01426023  0.21240795    -0.20100
C543        C  0.34444725  0.03895426  0.21165634    -0.25400
C544        C  0.35808459  0.06224739  0.20455932     0.27300
H545        H  0.41950308  0.03533196  0.19312385     0.13100
N546        N  0.39852272  0.98755579  0.20703315    -0.82600
H547        H  0.32354407  0.04013348  0.21709052     0.17900
N548        N  0.34460526  0.08758374  0.20480793    -0.81200
H549        H  0.41860184  0.98997810  0.20188389     0.33600
H550        H  0.39006530  0.97524063  0.19244250     0.38100
H551        H  0.32467159  0.08523243  0.21052684     0.33500
H552        H  0.35361834  0.09943907  0.21944686     0.30200
H553        H  0.43984536  0.09888949  0.23879211     0.33500
H554        H  0.41039361  0.08322352  0.24145940     0.30200
H555        H  0.39094117  0.12614449  0.11925160     0.38100
H556        H  0.36423009  0.13578785  0.13751339     0.33600
C557        C  0.50118827  0.21156944  0.12372189    -0.20200
C558        C  0.51081897  0.18556032  0.12872428     0.36000
C559        C  0.53541104  0.17775956  0.11792328    -0.26200
C560        C  0.55079651  0.19553798  0.10268115     0.02500
C561        C  0.54055528  0.22105144  0.09647537     0.27300
C562        C  0.51558058  0.22865769  0.10675968    -0.25300
N563        N  0.49585158  0.16739426  0.14524724    -0.82700
H564        H  0.54316862  0.15804737  0.12225871     0.13100
C565        C  0.57857206  0.18809760  0.09574176     0.02400
N566        N  0.55606331  0.23954591  0.08085287    -0.81200
H567        H  0.50816111  0.24861057  0.10296974     0.17900
C568        C  0.58691460  0.18813207  0.06897996    -0.26100
C569        C  0.61374730  0.18349329  0.06219070     0.36000
C570        C  0.63251853  0.17868293  0.08267062    -0.20100
C571        C  0.62366387  0.17688967  0.10925016    -0.25400
C572        C  0.59704832  0.18199867  0.11605292     0.27300
H573        H  0.57253221  0.19236400  0.05343100     0.13100
N574        N  0.62206381  0.18415876  0.03470004    -0.82600
H575        H  0.63791488  0.17337301  0.12509600     0.17900
N576        N  0.58897127  0.18226068  0.14364794    -0.81200
H577        H  0.60587202  0.18816484  0.02221173     0.33600
H578        H  0.62882543  0.16505264  0.02972076     0.38100
H579        H  0.60492592  0.17727372  0.15608601     0.33500
H580        H  0.58358993  0.20184305  0.14848001     0.30200
H581        H  0.54563606  0.25738841  0.07807689     0.33500
H582        H  0.57314294  0.24434569  0.09181545     0.30200
H583        H  0.47791843  0.16325163  0.13544878     0.38100
H584        H  0.50586850  0.14920859  0.14720841     0.33600
C585        C  0.68231779  0.09378162  0.84881959    -0.20200
C586        C  0.66139248  0.10432200  0.86442166     0.36000
C587        C  0.66624867  0.11138624  0.89124811    -0.26200
C588        C  0.69170927  0.10854385  0.90269684     0.02500
C589        C  0.71230002  0.09692476  0.88736616     0.27300
C590        C  0.70723760  0.08927563  0.86081682    -0.25300
N591        N  0.63540578  0.10795587  0.85294910    -0.82700
H592        H  0.65027987  0.11983716  0.90313274     0.13100
C593        C  0.69708303  0.11978333  0.92984220     0.02400
N594        N  0.73859346  0.09400496  0.89838630    -0.81200
H595        H  0.72335714  0.08111191  0.84894334     0.17900
C596        C  0.70845531  0.10377278  0.94991405    -0.26100
C597        C  0.71504002  0.11444030  0.97519292     0.36000
C598        C  0.70968728  0.14160132  0.98067824    -0.20100
C599        C  0.69788849  0.15735810  0.96069651    -0.25400
C600        C  0.69197710  0.14694270  0.93533898     0.27300
H601        H  0.71234173  0.08290322  0.94576216     0.13100
N602        N  0.72700624  0.09779394  0.99522618    -0.82600
H603        H  0.69416584  0.17832625  0.96452368     0.17900
N604        N  0.68153810  0.16410276  0.91484587    -0.81200
H605        H  0.72981961  0.07843201  0.98793166     0.33600
H606        H  0.71353121  0.09627663  0.01112331     0.38100
H607        H  0.67887268  0.18350309  0.92209284     0.33500
H608        H  0.69584863  0.16535071  0.89967174     0.30200
H609        H  0.75141589  0.08506436  0.88454631     0.33500
H610        H  0.74614478  0.11315804  0.90196411     0.30200
H611        H  0.62800980  0.08905952  0.84795807     0.38100
H612        H  0.62225997  0.11597400  0.86704846     0.33600
C613        C  0.27799960  0.87665503  0.00221882    -0.20200
C614        C  0.30445246  0.87560242  0.01212998     0.36000
C615        C  0.31064472  0.88803656  0.03655242    -0.26200
C616        C  0.29117977  0.90171570  0.05121825     0.02500
C617        C  0.26536181  0.90453378  0.04054176     0.27300
C618        C  0.25909449  0.89222995  0.01600628    -0.25300
N619        N  0.32477560  0.86123345  0.99784441    -0.82700
H620        H  0.33045391  0.88595618  0.04490350     0.13100
C621        C  0.29667910  0.90843058  0.07957370     0.02400
N622        N  0.24527619  0.91874173  0.05531099    -0.81200
H623        H  0.23886294  0.89339217  0.00856516     0.17900
C624        C  0.30078093  0.93496277  0.08773950    -0.26100
C625        C  0.30468900  0.94133925  0.11499184     0.36000
C626        C  0.30398204  0.92071794  0.13436442    -0.20100
C627        C  0.30073606  0.89414307  0.12567569    -0.25400
C628        C  0.29696333  0.88785423  0.09868974     0.27300
H629        H  0.30079287  0.95066265  0.07284759     0.13100
N630        N  0.30931762  0.96853285  0.12294841    -0.82600
H631        H  0.30006097  0.87805419  0.14012534     0.17900
N632        N  0.29281809  0.86057651  0.09059914    -0.81200
H633        H  0.30913710  0.98116463  0.10631718     0.33600
H634        H  0.32855229  0.96957418  0.13091699     0.38100
H635        H  0.29387282  0.84772720  0.10702364     0.33500
H636        H  0.27340999  0.85901510  0.08315250     0.30200
H637        H  0.22734703  0.91910023  0.04469581     0.33500
H638        H  0.24151869  0.90811276  0.07290566     0.30200
H639        H  0.32777656  0.87097210  0.97960414     0.38100
H640        H  0.34293159  0.86205434  0.00804874     0.33600
C641        C  0.58005577  0.86929587  0.81362344    -0.20200
C642        C  0.56104358  0.88729532  0.80314011     0.36000
C643        C  0.56842530  0.91383311  0.79769517    -0.26200
C644        C  0.59444918  0.92282851  0.80262440     0.02500
C645        C  0.61303599  0.90538727  0.81447258     0.27300
C646        C  0.60555939  0.87894619  0.82013175    -0.25300
N647        N  0.53433012  0.87869656  0.79769129    -0.82700
H648        H  0.55397332  0.92730177  0.78896537     0.13100
C649        C  0.60284101  0.94987744  0.79382676     0.02400
N650        N  0.63982914  0.91428529  0.81961942    -0.81200
H651        H  0.62034288  0.86540867  0.82813737     0.17900
C652        C  0.61263333  0.96801504  0.81278148    -0.26100
C653        C  0.62475843  0.99209432  0.80488910     0.36000
C654        C  0.62699647  0.99818489  0.77740162    -0.20100
C655        C  0.61554238  0.98081821  0.75855653    -0.25400
C656        C  0.60376557  0.95655395  0.76645925     0.27300
H657        H  0.61158903  0.96288683  0.83378988     0.13100
N658        N  0.63514628  0.01016015  0.82464935    -0.82600
H659        H  0.61714973  0.98543857  0.73746699     0.17900
N660        N  0.59382816  0.93815842  0.74675713    -0.81200
H661        H  0.63208766  0.00258685  0.84388135     0.33600
H662        H  0.62420554  0.02786818  0.82341739     0.38100
H663        H  0.59596168  0.94610920  0.72755536     0.33500
H664        H  0.60571467  0.92104046  0.74743499     0.30200
H665        H  0.65100320  0.89909230  0.82849317     0.33500
H666        H  0.64883163  0.91836063  0.80120102     0.30200
H667        H  0.53049661  0.88193557  0.77742685     0.38100
H668        H  0.52129766  0.89064665  0.80877472     0.33600
C669        C  0.34899489  0.82446095  0.89968438    -0.20200
C670        C  0.35763797  0.81883155  0.87317026     0.36000
C671        C  0.38476787  0.81554092  0.86773299    -0.26200
C672        C  0.40391374  0.81792367  0.88783624     0.02500
C673        C  0.39593013  0.82526553  0.91381158     0.27300
C674        C  0.36851242  0.82825765  0.91955938    -0.25300
N675        N  0.33947563  0.81492640  0.85144891    -0.82700
H676        H  0.39094302  0.81017166  0.84767055     0.13100
C677        C  0.43185780  0.81077780  0.88125961     0.02400
N678        N  0.41562747  0.82949441  0.93419672    -0.81200
H679        H  0.36233432  0.83294283  0.93977314     0.17900
C680        C  0.44904136  0.83020652  0.87074805    -0.26100
C681        C  0.47404111  0.82312327  0.86018126     0.36000
C682        C  0.48206037  0.79602680  0.85990161    -0.20100
C683        C  0.46530924  0.77683825  0.87180723    -0.25400
C684        C  0.44023510  0.78393131  0.88232228     0.27300
H685        H  0.44264077  0.85084948  0.86990792     0.13100
N686        N  0.49107973  0.84352444  0.84950208    -0.82600
H687        H  0.47115502  0.75602103  0.87169460     0.17900
N688        N  0.42262623  0.76380308  0.89286057    -0.81200
H689        H  0.49486944  0.85741920  0.86462661     0.33600
H690        H  0.48081508  0.85328381  0.83420154     0.38100
H691        H  0.43147581  0.74495062  0.89170083     0.33500
H692        H  0.41981276  0.76781872  0.91315835     0.30200
H693        H  0.40652501  0.83517603  0.95211806     0.33500
H694        H  0.42502489  0.81124603  0.93781924     0.30200
H695        H  0.32643780  0.79927377  0.85610076     0.38100
H696        H  0.32877455  0.83255210  0.84841206     0.33600
C697        C  0.37395341  0.23386892  0.08213699    -0.20200
C698        C  0.34706622  0.22531748  0.08067731     0.36000
C699        C  0.33128903  0.23264596  0.05871656    -0.26200
C700        C  0.34182476  0.24801842  0.03775767     0.02500
C701        C  0.36940925  0.25386509  0.03764396     0.27300
C702        C  0.38509282  0.24705609  0.05994332    -0.25300
N703        N  0.33505152  0.21079511  0.10224006    -0.82700
H704        H  0.31021254  0.22783382  0.05902208     0.13100
C705        C  0.32325034  0.26112149  0.01849883     0.02400
N706        N  0.38111883  0.26761371  0.01529081    -0.81200
H707        H  0.40583419  0.25313908  0.06048683     0.17900
C708        C  0.32411194  0.28905780  0.01612284    -0.26100
C709        C  0.30561966  0.30297054  0.00038340     0.36000
C710        C  0.28560411  0.28870028  0.98655437    -0.20100
C711        C  0.28463554  0.26072036  0.98884964    -0.25400
C712        C  0.30341491  0.24675590  0.00447732     0.27300
H713        H  0.33881571  0.30022433  0.02739303     0.13100
N714        N  0.30659455  0.33166238  0.99910736    -0.82600
H715        H  0.26940647  0.24971857  0.97812474     0.17900
N716        N  0.30248967  0.21810764  0.00609248    -0.81200
H717        H  0.32259459  0.33907675  0.01025515     0.33600
H718        H  0.28923637  0.33894396  0.00811158     0.38100
H719        H  0.28675347  0.21058368  0.99464539     0.33500
H720        H  0.32007223  0.21079348  0.99757982     0.30200
H721        H  0.40153956  0.27055205  0.01832350     0.33500
H722        H  0.37927537  0.25516860  0.99861935     0.30200
H723        H  0.31893647  0.22189231  0.10946173     0.38100
H724        H  0.32764496  0.19280491  0.09462516     0.33600
C725        C  0.22243928  0.90167128  0.21332606    -0.20200
C726        C  0.21359051  0.88264245  0.23206617     0.36000
C727        C  0.19086987  0.86734224  0.22662773    -0.26200
C728        C  0.17704950  0.87054667  0.20256606     0.02500
C729        C  0.18458965  0.89095480  0.18465100     0.27300
C730        C  0.20709567  0.90674068  0.19046671    -0.25300
N731        N  0.22826629  0.87817167  0.25617934    -0.82700
H732        H  0.18498550  0.85171440  0.24043669     0.13100
C733        C  0.15802155  0.84952663  0.19453969     0.02400
N734        N  0.17035676  0.89446291  0.16000345    -0.81200
H735        H  0.21397266  0.92137516  0.17604686     0.17900
C736        C  0.13052658  0.85421616  0.19532592    -0.26100
C737        C  0.11224228  0.83401695  0.18820986     0.36000
C738        C  0.12192352  0.80866588  0.18009099    -0.20100
C739        C  0.14963989  0.80436524  0.17935664    -0.25400
C740        C  0.16770268  0.82446985  0.18642747     0.27300
H741        H  0.12337110  0.87360049  0.20171691     0.13100
N742        N  0.08408410  0.83901233  0.19005902    -0.82600
H743        H  0.15740904  0.78517417  0.17312612     0.17900
N744        N  0.19595065  0.81954474  0.18559532    -0.81200
H745        H  0.08052704  0.85780461  0.19843942     0.33600
H746        H  0.07665184  0.83986732  0.17058794     0.38100
H747        H  0.19983491  0.79992497  0.17960973     0.33500
H748        H  0.20416721  0.83199665  0.17095211     0.30200
H749        H  0.17844547  0.91035096  0.14908766     0.33500
H750        H  0.17320474  0.87728385  0.14847391     0.30200
H751        H  0.23420047  0.85816768  0.25655656     0.38100
H752        H  0.21541992  0.88136685  0.27233586     0.33600
C753        C  0.11064632  0.73840916  0.08831738    -0.20200
C754        C  0.10361813  0.75684166  0.06804918     0.36000
C755        C  0.12151304  0.76181427  0.04702581    -0.26200
C756        C  0.14567339  0.74790316  0.04487712     0.02500
C757        C  0.15115323  0.72721988  0.06320588     0.27300
C758        C  0.13376782  0.72287863  0.08487363    -0.25300
N759        N  0.07885729  0.77122821  0.06930327    -0.82700
H760        H  0.11709322  0.77760213  0.03293600     0.13100
C761        C  0.16604339  0.75732474  0.02526146     0.02400
N762        N  0.17478840  0.71130108  0.06019628    -0.81200
H763        H  0.13904307  0.70813015  0.09977183     0.17900
C764        C  0.19180283  0.76356999  0.03441580    -0.26100
C765        C  0.21075998  0.77574182  0.01761955     0.36000
C766        C  0.20351529  0.78263804  0.99129575    -0.20100
C767        C  0.17801525  0.77584175  0.98189255    -0.25400
C768        C  0.15937721  0.76282427  0.99842194     0.27300
H769        H  0.19686196  0.75985726  0.05510987     0.13100
N770        N  0.23670141  0.78258969  0.02774769    -0.82600
H771        H  0.17258833  0.78086957  0.96155886     0.17900
N772        N  0.13359975  0.75551545  0.98819613    -0.81200
H773        H  0.23813717  0.77776920  0.04801571     0.33600
H774        H  0.25060136  0.77054784  0.01791439     0.38100
H775        H  0.13181507  0.76109630  0.96815329     0.33500
H776        H  0.13221291  0.73468348  0.98877933     0.30200
H777        H  0.17602010  0.69706892  0.07542561     0.33500
H778        H  0.17303846  0.70074195  0.04226355     0.30200
H779        H  0.06344583  0.75725095  0.06740654     0.38100
H780        H  0.07706605  0.78430466  0.05312358     0.33600
C781        C  0.20533855  0.37348205  0.00481042    -0.20200
C782        C  0.22382456  0.38884210  0.01981084     0.36000
C783        C  0.21626019  0.39888285  0.04492003    -0.26200
C784        C  0.19064829  0.39443156  0.05513353     0.02500
C785        C  0.17156454  0.38099983  0.03951293     0.27300
C786        C  0.17910509  0.37058335  0.01453081    -0.25300
N787        N  0.25061603  0.39298947  0.01035645    -0.82700
H788        H  0.23073677  0.40935192  0.05712582     0.13100
C789        C  0.18544936  0.40068599  0.08352530     0.02400
N790        N  0.14477929  0.37762286  0.04928880    -0.81200
H791        H  0.16463016  0.35938174  0.00300253     0.17900
C792        C  0.17690198  0.42622398  0.09109342    -0.26100
C793        C  0.17375038  0.43286956  0.11823610     0.36000
C794        C  0.17905721  0.41356218  0.13814261    -0.20100
C795        C  0.18713628  0.38785644  0.13023196    -0.25400
C796        C  0.19062208  0.38132372  0.10321601     0.27300
H797        H  0.17311921  0.44116304  0.07591152     0.13100
N798        N  0.16525021  0.45920346  0.12541992    -0.82600
H799        H  0.19184285  0.37300953  0.14523078     0.17900
N800        N  0.20051345  0.35543360  0.09569008    -0.81200
H801        H  0.14681088  0.46271781  0.11638475     0.33600
H802        H  0.17899053  0.47286443  0.11757492     0.38100
H803        H  0.20419802  0.34377774  0.11260726     0.33500
H804        H  0.18553349  0.34564396  0.08498521     0.30200
H805        H  0.13309176  0.36758189  0.03520872     0.33500
H806        H  0.14545483  0.36539242  0.06618286     0.30200
H807        H  0.24956455  0.40581942  0.99391623     0.38100
H808        H  0.26204504  0.40296661  0.02469409     0.33600
C809        C  0.12971396  0.51367530  0.21289182    -0.20200
C810        C  0.12100687  0.53289840  0.23155137     0.36000
C811        C  0.10692709  0.55542054  0.22256185    -0.26200
C812        C  0.10166716  0.55927206  0.19528780     0.02500
C813        C  0.10979810  0.53968207  0.17672029     0.27300
C814        C  0.12395414  0.51716807  0.18569411    -0.25300
N815        N  0.12760627  0.53011182  0.25935640    -0.82700
H816        H  0.10114502  0.57071632  0.23674034     0.13100
C817        C  0.09063859  0.58538310  0.18644038     0.02400
N818        N  0.10394402  0.54296845  0.14882374    -0.81200
H819        H  0.13070748  0.50235922  0.17142280     0.17900
C820        C  0.10616048  0.60156207  0.16965278    -0.26100
C821        C  0.09909089  0.62818679  0.16448363     0.36000
C822        C  0.07621938  0.63920353  0.17696386    -0.20100
C823        C  0.05945217  0.62224071  0.19190568    -0.25400
C824        C  0.06642518  0.59539952  0.19668628     0.27300
H825        H  0.12460286  0.59374503  0.16152162     0.13100
N826        N  0.11559113  0.64428673  0.14728987    -0.82600
H827        H  0.04164398  0.63027336  0.20114858     0.17900
N828        N  0.04949437  0.57847626  0.21257803    -0.81200
H829        H  0.13177727  0.63328601  0.14008162     0.33600
H830        H  0.10413604  0.64950373  0.13066906     0.38100
H831        H  0.03246426  0.58883691  0.21869264     0.33500
H832        H  0.04294446  0.56287049  0.20033574     0.30200
H833        H  0.11134936  0.52686013  0.13779981     0.33500
H834        H  0.08320653  0.54258081  0.14672656     0.30200
H835        H  0.14835669  0.53138820  0.26104288     0.38100
H836        H  0.11979562  0.54599803  0.27042087     0.33600
C837        C  0.26216643  0.39750324  0.20938003    -0.20200
C838        C  0.27456311  0.40036874  0.18413373     0.36000
C839        C  0.29657838  0.38428972  0.17771904    -0.26200
C840        C  0.30666295  0.36585135  0.19609927     0.02500
C841        C  0.29564232  0.36435217  0.22196465     0.27300
C842        C  0.27335516  0.38013918  0.22833090    -0.25300
N843        N  0.26355516  0.41800398  0.16437345    -0.82700
H844        H  0.30519777  0.38521870  0.15786714     0.13100
C845        C  0.32599502  0.34566741  0.18671370     0.02400
N846        N  0.30644796  0.34604275  0.24121968    -0.81200
H847        H  0.26395122  0.37805445  0.24773464     0.17900
C848        C  0.35287921  0.34743170  0.19410033    -0.26100
C849        C  0.37120835  0.32762970  0.18626322     0.36000
C850        C  0.36225183  0.30575251  0.17077630    -0.20100
C851        C  0.33537891  0.30443170  0.16306878    -0.25400
C852        C  0.31717852  0.32416031  0.17086233     0.27300
H853        H  0.35941523  0.36405097  0.20633248     0.13100
N854        N  0.39857522  0.32925885  0.19463176    -0.82600
H855        H  0.32847897  0.28772747  0.15114183     0.17900
N856        N  0.28965284  0.32234752  0.16302133    -0.81200
H857        H  0.40187801  0.34668576  0.20566536     0.33600
H858        H  0.40214224  0.31326389  0.20756301     0.38100
H859        H  0.28646074  0.30547983  0.15112045     0.33500
H860        H  0.27827362  0.31964854  0.18034164     0.30200
H861        H  0.29618732  0.34754168  0.25936027     0.33500
H862        H  0.30320866  0.32665921  0.23413645     0.30200
H863        H  0.26674980  0.43755846  0.17097184     0.38100
H864        H  0.27387940  0.41624239  0.14629264     0.33600
C865        C  0.85053413  0.69243892  0.08766785    -0.20200
C866        C  0.85935546  0.70358105  0.11202966     0.36000
C867        C  0.88667231  0.70767110  0.11607916    -0.26200
C868        C  0.90522131  0.70135274  0.09617081     0.02500
C869        C  0.89659657  0.69049323  0.07173257     0.27300
C870        C  0.86916528  0.68617703  0.06763804    -0.25300
N871        N  0.84047915  0.71162621  0.13215099    -0.82700
H872        H  0.89359706  0.71622597  0.13472140     0.13100
C873        C  0.93359539  0.70636032  0.10183657     0.02400
N874        N  0.91567673  0.68400762  0.05130082    -0.81200
H875        H  0.86225939  0.67809342  0.04878901     0.17900
C876        C  0.94882383  0.68573709  0.11283647    -0.26100
C877        C  0.97384116  0.69107765  0.12406284     0.36000
C878        C  0.98394627  0.71735381  0.12387382    -0.20100
C879        C  0.96948134  0.73762411  0.11105639    -0.25400
C880        C  0.94413252  0.73242060  0.10032308     0.27300
H881        H  0.94060682  0.66572818  0.11407243     0.13100
N882        N  0.98866315  0.66992891  0.13624252    -0.82600
H883        H  0.97712830  0.75789224  0.11107143     0.17900
N884        N  0.92836849  0.75367669  0.08931608    -0.81200
H885        H  0.97694003  0.66162346  0.15142685     0.33600
H886        H  0.99193754  0.65517835  0.12182772     0.38100
H887        H  0.93877632  0.77177844  0.09019513     0.33500
H888        H  0.92539557  0.74947769  0.06908287     0.30200
H889        H  0.90605230  0.67603528  0.03458178     0.33500
H890        H  0.92465436  0.70183372  0.04509777     0.30200
H891        H  0.82919135  0.72728387  0.12426371     0.38100
H892        H  0.85030523  0.71932554  0.14888060     0.33600
C893        C  0.69974582  0.72023777  0.00199991    -0.20200
C894        C  0.70787069  0.73220443  0.97771556     0.36000
C895        C  0.68864343  0.74377420  0.96088498    -0.26200
C896        C  0.66145108  0.74367047  0.96769643     0.02500
C897        C  0.65348427  0.73260022  0.99241492     0.27300
C898        C  0.67263934  0.72078774  0.00913683    -0.25300
N899        N  0.73540187  0.73158496  0.96964673    -0.82700
H900        H  0.69476998  0.75180902  0.94173186     0.13100
C901        C  0.64144883  0.75241245  0.94747230     0.02400
N902        N  0.62590525  0.73316915  0.00028799    -0.81200
H903        H  0.66636250  0.71192263  0.02787875     0.17900
C904        C  0.62142304  0.73438782  0.93978226    -0.26100
C905        C  0.60408210  0.74002195  0.91852127     0.36000
C906        C  0.60704816  0.76420149  0.90414439    -0.20100
C907        C  0.62645791  0.78272813  0.91249376    -0.25400
C908        C  0.64349295  0.77720838  0.93415920     0.27300
H909        H  0.62007362  0.71518007  0.94966978     0.13100
N910        N  0.58488127  0.72030658  0.91027531    -0.82600
H911        H  0.62888433  0.80123685  0.90152411     0.17900
N912        N  0.66326806  0.79637483  0.94227698    -0.81200
H913        H  0.58677889  0.70285228  0.92157506     0.33600
H914        H  0.56595704  0.72788858  0.91460583     0.38100
H915        H  0.66231199  0.81348666  0.93034722     0.33500
H916        H  0.65860582  0.80234992  0.96174247     0.30200
H917        H  0.62330619  0.72407407  0.01891691     0.33500
H918        H  0.62048089  0.75318941  0.00258708     0.30200
H919        H  0.74052241  0.71161520  0.96635710     0.38100
H920        H  0.73804545  0.74147214  0.95143159     0.33600
C921        C  0.00069292  0.29243300  0.86058570    -0.20200
C922        C  0.01157531  0.31800431  0.85555841     0.36000
C923        C  0.03638263  0.32488825  0.86660820    -0.26200
C924        C  0.05067705  0.30671542  0.88236200     0.02500
C925        C  0.03918698  0.28167890  0.88852738     0.27300
C926        C  0.01410767  0.27495432  0.87786591    -0.25300
N927        N  0.99756060  0.33674199  0.83898035    -0.82700
H928        H  0.04504433  0.34427115  0.86229352     0.13100
C929        C  0.07849905  0.31336476  0.89026438     0.02400
N930        N  0.05351314  0.26275320  0.90459801    -0.81200
H931        H  0.00574905  0.25536014  0.88179166     0.17900
C932        C  0.08588561  0.31331540  0.91731410    -0.26100
C933        C  0.11247468  0.31818049  0.92507063     0.36000
C934        C  0.13199572  0.32343062  0.90531349    -0.20100
C935        C  0.12422333  0.32442169  0.87836201    -0.25400
C936        C  0.09789857  0.31902613  0.87061133     0.27300
H937        H  0.07088449  0.30918384  0.93237338     0.13100
N938        N  0.11970099  0.31760636  0.95283251    -0.82600
H939        H  0.13908060  0.32797416  0.86301546     0.17900
N940        N  0.09098426  0.31830429  0.84274073    -0.81200
H941        H  0.10307383  0.31327234  0.96471653     0.33600
H942        H  0.12599884  0.33682197  0.95809566     0.38100
H943        H  0.10750906  0.32296410  0.83083711     0.33500
H944        H  0.08559196  0.29866361  0.83806914     0.30200
H945        H  0.04226570  0.24534613  0.90731380     0.33500
H946        H  0.07062377  0.25721654  0.89400856     0.30200
H947        H  0.97974414  0.34158425  0.84870808     0.38100
H948        H  0.00838850  0.35452045  0.83708971     0.33600
C949        C  0.76009828  0.10913311  0.77439782    -0.20200
C950        C  0.77505240  0.12284802  0.75489657     0.36000
C951        C  0.79725609  0.13820137  0.76280995    -0.26200
C952        C  0.80477365  0.13971209  0.78981083     0.02500
C953        C  0.79100377  0.12411469  0.80888896     0.27300
C954        C  0.76869811  0.10912842  0.80097943    -0.25300
N955        N  0.76701654  0.12195693  0.72741573    -0.82700
H956        H  0.80785467  0.15008886  0.74812634     0.13100
C957        C  0.82479779  0.15991682  0.79840640     0.02400
N958        N  0.79913670  0.12443351  0.83641026    -0.81200
H959        H  0.75712206  0.09846724  0.81586850     0.17900
C960        C  0.81707663  0.17915835  0.81726654    -0.26100
C961        C  0.83464666  0.19928898  0.82547556     0.36000
C962        C  0.86053259  0.20059313  0.81454792    -0.20100
C963        C  0.86853166  0.18113297  0.79595288    -0.25400
C964        C  0.85084701  0.16082127  0.78767363     0.27300
H965        H  0.79706384  0.17876410  0.82548425     0.13100
N966        N  0.82620247  0.21820532  0.84522436    -0.82600
H967        H  0.88838385  0.18215715  0.78741363     0.17900
N968        N  0.85915406  0.14123683  0.76840830    -0.81200
H969        H  0.82081004  0.20768946  0.86246310     0.33600
H970        H  0.80924313  0.22793862  0.83804706     0.38100
H971        H  0.87881339  0.14481130  0.76236601     0.33500
H972        H  0.85901088  0.12263085  0.77788912     0.30200
H973        H  0.78670333  0.11220037  0.84794031     0.33500
H974        H  0.81823284  0.11616218  0.83735317     0.30200
H975        H  0.76880663  0.10218888  0.72093574     0.38100
H976        H  0.77995434  0.13336480  0.71560189     0.33600
C977        C  0.87570351  0.26535903  0.90553254    -0.20200
C978        C  0.86298454  0.28717383  0.91824785     0.36000
C979        C  0.84559065  0.28235244  0.93989012    -0.26200
C980        C  0.84084851  0.25628849  0.94894287     0.02500
C981        C  0.85416223  0.23467659  0.93693659     0.27300
C982        C  0.87163272  0.23944695  0.91559950    -0.25300
N983        N  0.86730185  0.31396798  0.90884559    -0.82700
H984        H  0.83513647  0.29880938  0.94924490     0.13100
C985        C  0.82008367  0.25097321  0.96921388     0.02400
N986        N  0.84866869  0.20778549  0.94552541    -0.81200
H987        H  0.88094069  0.22254706  0.90583093     0.17900
C988        C  0.79415751  0.24551188  0.96036728    -0.26100
C989        C  0.77515283  0.23415501  0.97759914     0.36000
C990        C  0.78236228  0.22829668  0.00420855    -0.20100
C991        C  0.80782073  0.23538286  0.01348741    -0.25400
C992        C  0.82676480  0.24692066  0.99621937     0.27300
H993        H  0.78928774  0.24859474  0.93950943     0.13100
N994        N  0.74914621  0.22707330  0.96774456    -0.82600
H995        H  0.81314831  0.23117880  0.03401087     0.17900
N996        N  0.85283823  0.25406165  0.00579672    -0.81200
H997        H  0.74704694  0.23288486  0.94779960     0.33600
H998        H  0.74761851  0.20623654  0.96804129     0.38100
H999        H  0.85437674  0.25014111  0.02625081     0.33500
H1000       H  0.86677450  0.24181225  0.99629210     0.30200
H1001       H  0.85933431  0.19405085  0.93398512     0.33500
H1002       H  0.85560689  0.20578198  0.96508596     0.30200
H1003       H  0.88740238  0.31860278  0.91193160     0.38100
H1004       H  0.85626111  0.32757812  0.92018065     0.33600
C1005       C  0.78171436  0.63534134  0.98927882    -0.20200
C1006       C  0.80898607  0.63332573  0.98245888     0.36000
C1007       C  0.81628964  0.62123080  0.95810878    -0.26200
C1008       C  0.79684581  0.61123405  0.94056304     0.02500
C1009       C  0.76972265  0.61219677  0.94800339     0.27300
C1010       C  0.76250687  0.62384689  0.97244595    -0.25300
N1011       N  0.82904393  0.64380071  0.00009127    -0.82700
H1012       H  0.83711363  0.62029573  0.95237308     0.13100
C1013       C  0.80444464  0.60250496  0.91323507     0.02400
N1014       N  0.74949500  0.60249746  0.93009809    -0.81200
H1015       H  0.74156962  0.62542672  0.97760023     0.17900
C1016       C  0.79818818  0.57655416  0.90467026    -0.26100
C1017       C  0.80038351  0.56922307  0.87757733     0.36000
C1018       C  0.80880841  0.58849580  0.85857131    -0.20100
C1019       C  0.81712885  0.61377878  0.86779260    -0.25400
C1020       C  0.81478787  0.62104923  0.89476151     0.27300
H1021       H  0.79054237  0.56229808  0.91908063     0.13100
N1022       N  0.79302643  0.54270492  0.86935734    -0.82600
H1023       H  0.82427813  0.62858169  0.85369950     0.17900
N1024       N  0.82161237  0.64766580  0.90320905    -0.81200
H1025       H  0.78620475  0.53152699  0.88565017     0.33600
H1026       H  0.81034759  0.53326407  0.86259395     0.38100
H1027       H  0.82910412  0.65883026  0.88720504     0.33500
H1028       H  0.80404253  0.65707895  0.90933660     0.35000
H1029       H  0.73054877  0.60459064  0.93858991     0.33500
H1030       H  0.74981100  0.61459840  0.91307393     0.30200
H1031       H  0.82812200  0.63283954  0.01785039     0.38100
H1032       H  0.84808051  0.64075313  0.99210969     0.33600
C1033       C  0.91181448  0.36801077  0.81512409    -0.20200
C1034       C  0.89706310  0.38169490  0.83478179     0.36000
C1035       C  0.89057914  0.40864926  0.83091545    -0.26200
C1036       C  0.89848953  0.42210583  0.80761682     0.02500
C1037       C  0.91524840  0.40921243  0.78907324     0.27300
C1038       C  0.92196320  0.38228287  0.79314621    -0.25300
N1039       N  0.88800538  0.36807546  0.85828400    -0.82700
H1040       H  0.87785266  0.41862452  0.84530051     0.13100
C1041       C  0.88487154  0.44726183  0.80041231     0.02400
N1042       N  0.92348359  0.42281576  0.76513789    -0.81200
H1043       H  0.93340504  0.37187710  0.77801199     0.17900
C1044       C  0.89888116  0.47155878  0.79965338    -0.26100
C1045       C  0.88604937  0.49537342  0.79196425     0.36000
C1046       C  0.85875202  0.49463348  0.78508084    -0.20100
C1047       C  0.84489406  0.47025747  0.78607572    -0.25400
C1048       C  0.85770864  0.44656705  0.79334864     0.27300
H1049       H  0.91977220  0.47190055  0.80511409     0.13100
N1050       N  0.90046376  0.52021584  0.79146690    -0.82600
H1051       H  0.82403773  0.46955739  0.78046751     0.17900
N1052       N  0.84335344  0.42164335  0.79326932    -0.81200
H1053       H  0.92033138  0.51725195  0.79700134     0.33600
H1054       H  0.89204823  0.53267696  0.80595609     0.38100
H1055       H  0.82347318  0.42458823  0.78777015     0.33500
H1056       H  0.85183352  0.40950052  0.77854729     0.30200
H1057       H  0.93469177  0.41010938  0.75294855     0.33500
H1058       H  0.93624198  0.43835247  0.77077182     0.30200
H1059       H  0.86720966  0.36937022  0.85900775     0.38100
H1060       H  0.89564686  0.37811475  0.87491884     0.33600
C1061       C  0.72401328  0.60743473  0.77976044    -0.20200
C1062       C  0.71467299  0.62575421  0.76057055     0.36000
C1063       C  0.69246730  0.64164685  0.76653580    -0.26200
C1064       C  0.67960642  0.63967971  0.79135127     0.02500
C1065       C  0.68736626  0.61966976  0.80955531     0.27300
C1066       C  0.70941372  0.60341102  0.80339078    -0.25300
N1067       N  0.72858835  0.62896443  0.73563830    -0.82700
H1068       H  0.68610757  0.65678368  0.75245764     0.13100
C1069       C  0.66089331  0.66116264  0.79917868     0.02400
N1070       N  0.67389976  0.61704456  0.83479847    -0.81200
H1071       H  0.71660930  0.58925920  0.81806819     0.17900
C1072       C  0.63375309  0.65564205  0.80311409    -0.26100
C1073       C  0.61562009  0.67626949  0.80917653     0.36000
C1074       C  0.62503988  0.70287286  0.81152791    -0.20100
C1075       C  0.65238970  0.70804190  0.80804913    -0.25400
C1076       C  0.67037886  0.68750283  0.80215144     0.27300
H1077       H  0.62666453  0.63530503  0.80086497     0.13100
N1078       N  0.58773060  0.67033502  0.81232912    -0.82600
H1079       H  0.65990044  0.72823418  0.81023811     0.17900
N1080       N  0.69836327  0.69322144  0.79920236    -0.81200
H1081       H  0.58425288  0.64983227  0.81031517     0.33600
H1082       H  0.57757868  0.67963185  0.79666807     0.38100
H1083       H  0.70210728  0.71360611  0.80183329     0.33500
H1084       H  0.70841267  0.68328934  0.81453763     0.30200
H1085       H  0.68206068  0.60136344  0.84586472     0.33500
H1086       H  0.67740696  0.63451159  0.84570597     0.30200
H1087       H  0.72707459  0.61092389  0.72522172     0.38100
H1088       H  0.71937518  0.64348535  0.72384363     0.33600
C1089       C  0.09542995  0.72010082  0.26032165    -0.20200
C1090       C  0.11874439  0.73465727  0.26683002     0.36000
C1091       C  0.13247809  0.72864010  0.29041430    -0.26200
C1092       C  0.12306257  0.70893445  0.30787192     0.02500
C1093       C  0.09826616  0.69656071  0.30303147     0.27300
C1094       C  0.08457836  0.70230474  0.27918194    -0.25300
N1095       N  0.12885652  0.75485156  0.24901429    -0.82700
H1096       H  0.15127429  0.73848981  0.29465387     0.13100
C1097       C  0.14117019  0.69955207  0.32911021     0.02400
N1098       N  0.08738635  0.67796624  0.32205993    -0.81200
H1099       H  0.06635281  0.69160361  0.27457821     0.17900
C1100       C  0.14324592  0.71393823  0.35304608    -0.26100
C1101       C  0.16310455  0.70770918  0.37189746     0.36000
C1102       C  0.18110825  0.68676114  0.36646253    -0.20100
C1103       C  0.17873128  0.67223764  0.34262783    -0.25400
C1104       C  0.15894903  0.67841720  0.32386227     0.27300
H1105       H  0.12995936  0.73061898  0.35653769     0.13100
N1106       N  0.16620540  0.72367720  0.39555312    -0.82600
H1107       H  0.19288470  0.65646585  0.33834568     0.17900
N1108       N  0.15780123  0.66438057  0.29880634    -0.81200
H1109       H  0.15222998  0.73913949  0.39584047     0.33600
H1110       H  0.16188638  0.71152704  0.41198490     0.38100
H1111       H  0.17289758  0.65005133  0.29770238     0.33500
H1112       H  0.13976540  0.65392562  0.29812890     0.30200
H1113       H  0.06881682  0.67095178  0.31564243     0.33500
H1114       H  0.09996248  0.66139025  0.32289001     0.30200
H1115       H  0.11464903  0.77007289  0.24806283     0.38100
H1116       H  0.14626200  0.76346577  0.25664821     0.33600
C1117       C  0.25792421  0.60134769  0.37487901    -0.20200
C1118       C  0.23934545  0.58053314  0.38000506     0.36000
C1119       C  0.23718369  0.55921642  0.36192545    -0.26200
C1120       C  0.25365510  0.55756973  0.33934823     0.02500
C1121       C  0.27394968  0.57671009  0.33563593     0.27300
C1122       C  0.27580898  0.59847802  0.35332174    -0.25300
N1123       N  0.22201584  0.58145507  0.40291623    -0.82700
H1124       H  0.22173501  0.54432350  0.36486891     0.13100
C1125       C  0.24729947  0.53731037  0.31861221     0.02400
N1126       N  0.29208626  0.57430080  0.31350559    -0.81200
H1127       H  0.29060048  0.61381768  0.34950324     0.17900
C1128       C  0.24026787  0.54601540  0.29289474    -0.26100
C1129       C  0.22925340  0.52825284  0.27413650     0.36000
C1130       C  0.22505585  0.50138407  0.28140945    -0.20100
C1131       C  0.23327288  0.49237169  0.30659326    -0.25400
C1132       C  0.24468916  0.51002734  0.32518459     0.27300
H1133       H  0.24199647  0.56702595  0.28796618     0.13100
N1134       N  0.22050432  0.53777048  0.24852403    -0.82600
H1135       H  0.23003032  0.47165372  0.31200856     0.17900
N1136       N  0.25288673  0.50061242  0.35101074    -0.81200
H1137       H  0.22401061  0.55829127  0.24674401     0.33600
H1138       H  0.23224869  0.52851482  0.23396210     0.38100
H1139       H  0.24949733  0.48006683  0.35274038     0.33500
H1140       H  0.27349770  0.50346527  0.35240778     0.30200
H1141       H  0.30582403  0.59004622  0.31351663     0.33500
H1142       H  0.30303513  0.55677911  0.31630091     0.30200
H1143       H  0.20906849  0.56505118  0.40316832     0.38100
H1144       H  0.23399391  0.57973108  0.41989955     0.33600
C1145       C  0.30128364  0.87589797  0.30339632    -0.20200
C1146       C  0.29451119  0.88530925  0.32924114     0.36000
C1147       C  0.28684646  0.86685051  0.34909243    -0.26200
C1148       C  0.28539477  0.83948647  0.34340699     0.02500
C1149       C  0.29263271  0.83006031  0.31793701     0.27300
C1150       C  0.30038868  0.84827340  0.29828326    -0.25300
N1151       N  0.29491779  0.91339695  0.33518507    -0.82700
H1152       H  0.28138581  0.87381158  0.36884985     0.13100
C1153       C  0.27629098  0.82025446  0.36383283     0.02400
N1154       N  0.29203506  0.80189519  0.31216957    -0.81200
H1155       H  0.30581821  0.84064748  0.27877200     0.17900
C1156       C  0.25335442  0.80511768  0.35849996    -0.26100
C1157       C  0.24809701  0.78153391  0.37263234     0.36000
C1158       C  0.26603093  0.77329611  0.39266626    -0.20100
C1159       C  0.28702307  0.79027528  0.40026585    -0.25400
C1160       C  0.29260727  0.81360746  0.38569626     0.27300
H1161       H  0.24067550  0.81068164  0.34190460     0.13100
N1162       N  0.22543714  0.76523501  0.36586551    -0.82600
H1163       H  0.30058412  0.78407499  0.41589618     0.17900
N1164       N  0.31571816  0.82949962  0.39182747    -0.81200
H1165       H  0.21447091  0.77399058  0.35044522     0.33600
H1166       H  0.21290968  0.76461377  0.38257612     0.38100
H1167       H  0.32551527  0.82190637  0.40859731     0.33500
H1168       H  0.32903886  0.82781411  0.37582341     0.30200
H1169       H  0.29759187  0.79824653  0.29236289     0.33500
H1170       H  0.30635663  0.79269526  0.32418666     0.30200
H1171       H  0.27979042  0.92236915  0.32401404     0.38100
H1172       H  0.29018668  0.91673153  0.35526048     0.33600
C1173       C  0.35106437  0.69546829  0.40796969    -0.20200
C1174       C  0.36975946  0.70303266  0.42787567     0.36000
C1175       C  0.39688204  0.70603436  0.42097960    -0.26200
C1176       C  0.40567453  0.70248267  0.39461706     0.02500
C1177       C  0.38742513  0.69383349  0.37506724     0.27300
C1178       C  0.36052896  0.69014798  0.38198482    -0.25300
N1179       N  0.36128834  0.70832494  0.45480848    -0.82700
H1180       H  0.41113618  0.71203113  0.43607774     0.13100
C1181       C  0.43353207  0.70938245  0.38698871     0.02400
N1182       N  0.39616463  0.68950266  0.34802209    -0.81200
H1183       H  0.34672423  0.68392731  0.36656868     0.17900
C1184       C  0.44995553  0.68955683  0.37594860    -0.26100
C1185       C  0.47435636  0.69620921  0.36381954     0.36000
C1186       C  0.48282340  0.72307734  0.36307482    -0.20100
C1187       C  0.46731063  0.74262342  0.37577755    -0.25400
C1188       C  0.44267122  0.73616136  0.38731885     0.27300
H1189       H  0.44322049  0.66897061  0.37567037     0.13100
N1190       N  0.49031383  0.67569108  0.35192576    -0.82600
H1191       H  0.47350960  0.76337342  0.37518568     0.17900
N1192       N  0.42661482  0.75746810  0.39758498    -0.81200
H1193       H  0.47887951  0.66614864  0.33730208     0.33600
H1194       H  0.49483616  0.66166357  0.36669838     0.38100
H1195       H  0.42325513  0.75421311  0.41791545     0.33500
H1196       H  0.40830169  0.75735569  0.38763891     0.30200
H1197       H  0.38036674  0.68290182  0.33610835     0.33500
H1198       H  0.40224256  0.70793128  0.34025854     0.30200
H1199       H  0.35021526  0.72598986  0.45450203     0.38100
H1200       H  0.37770883  0.71208824  0.46709878     0.33600
C1201       C  0.68086856  0.68637205  0.12371248    -0.20200
C1202       C  0.67125573  0.66891533  0.14358837     0.36000
C1203       C  0.65086321  0.67737216  0.16060711    -0.26200
C1204       C  0.64013151  0.70315167  0.15834622     0.02500
C1205       C  0.64890155  0.72020755  0.13768966     0.27300
C1206       C  0.66931687  0.71161049  0.12049925    -0.25300
N1207       N  0.68254834  0.64293800  0.14745139    -0.82700
H1208       H  0.64437914  0.66430424  0.17662955     0.13100
C1209       C  0.62266284  0.71302183  0.17999506     0.02400
N1210       N  0.63757775  0.74639350  0.13485315    -0.81200
H1211       H  0.67693460  0.72494754  0.10520966     0.17900
C1212       C  0.63198678  0.73391472  0.19612933    -0.26100
C1213       C  0.61900471  0.74043612  0.22000436     0.36000
C1214       C  0.59615290  0.72591577  0.22789083    -0.20100
C1215       C  0.58558445  0.70649492  0.21060406    -0.25400
C1216       C  0.59876801  0.69976899  0.18674898     0.27300
H1217       H  0.65032139  0.74421817  0.19095057     0.13100
N1218       N  0.62951420  0.76132779  0.23652527    -0.82600
H1219       H  0.56798286  0.69534833  0.21649809     0.17900
N1220       N  0.58864853  0.67886717  0.16987213    -0.81200
H1221       H  0.62996181  0.77893518  0.22530013     0.33600
H1222       H  0.64914171  0.75643172  0.24151621     0.38100
H1223       H  0.57103955  0.67090811  0.17781094     0.33500
H1224       H  0.58365514  0.68749756  0.15154079     0.30200
H1225       H  0.64639062  0.75650055  0.11881574     0.33500
H1226       H  0.61742775  0.74395953  0.13008906     0.30200
H1227       H  0.68067537  0.63224230  0.12961088     0.38100
H1228       H  0.70285456  0.64515849  0.15162053     0.33600
C1229       C  0.49637367  0.79813364  0.27349322    -0.20200
C1230       C  0.47080371  0.78946011  0.26540771     0.36000
C1231       C  0.45276366  0.80804677  0.25475444    -0.26200
C1232       C  0.45992001  0.83495144  0.25122199     0.02500
C1233       C  0.48602319  0.84325933  0.25792880     0.27300
C1234       C  0.50380800  0.82486812  0.26945400    -0.25300
N1235       N  0.46263314  0.76221321  0.26956640    -0.82700
H1236       H  0.43263828  0.80168835  0.25008807     0.13100
C1237       C  0.43892547  0.85448921  0.24340931     0.02400
N1238       N  0.49420723  0.87041078  0.25332150    -0.81200
H1239       H  0.52352872  0.83141273  0.27543068     0.17900
C1240       C  0.43428585  0.87655166  0.25997202    -0.26100
C1241       C  0.41234175  0.89332093  0.25601627     0.36000
C1242       C  0.39389492  0.88777428  0.23530175    -0.20100
C1243       C  0.39949458  0.86658584  0.21767119    -0.25400
C1244       C  0.42190258  0.85004785  0.22139399     0.27300
H1245       H  0.44712700  0.88018158  0.27698203     0.13100
N1246       N  0.40854226  0.91539143  0.27384238    -0.82600
H1247       H  0.38589326  0.86227647  0.20144494     0.17900
N1248       N  0.42713393  0.82840840  0.20327056    -0.81200
H1249       H  0.42539348  0.92768585  0.27271232     0.33600
H1250       H  0.40717038  0.90795225  0.29331740     0.38100
H1251       H  0.41272471  0.82774243  0.18821820     0.33500
H1252       H  0.44536786  0.83235745  0.19388866     0.30200
H1253       H  0.51394835  0.87329501  0.25937864     0.33500
H1254       H  0.49376119  0.87370775  0.23270449     0.30200
H1255       H  0.47358667  0.75031383  0.25638329     0.38100
H1256       H  0.44261751  0.75962177  0.26433386     0.33600
C1257       C  0.58626481  0.12204814  0.75067545    -0.20200
C1258       C  0.57027913  0.12085466  0.72740364     0.36000
C1259       C  0.54859890  0.13837351  0.72473117    -0.26200
C1260       C  0.54213938  0.15658880  0.74493237     0.02500
C1261       C  0.55631279  0.15601893  0.76922072     0.27300
C1262       C  0.57859842  0.13908212  0.77166604    -0.25300
N1263       N  0.57719966  0.10332144  0.70572359    -0.82700
H1264       H  0.53731816  0.13865530  0.70628583     0.13100
C1265       C  0.52237759  0.17772616  0.73886158     0.02400
N1266       N  0.54790658  0.17236465  0.79129950    -0.81200
H1267       H  0.59044218  0.13964753  0.78973871     0.17900
C1268       C  0.49512600  0.17141146  0.73832788    -0.26100
C1269       C  0.47630732  0.18982683  0.72855473     0.36000
C1270       C  0.48498116  0.21517129  0.71946266    -0.20100
C1271       C  0.51214155  0.22175975  0.72103018    -0.25400
C1272       C  0.53100922  0.20308119  0.72998706     0.27300
H1273       H  0.48869228  0.15171111  0.74462792     0.13100
N1274       N  0.44855237  0.18267967  0.72720262    -0.82600
H1275       H  0.51890723  0.24089295  0.71344912     0.17900
N1276       N  0.55904707  0.20893899  0.72798071    -0.81200
H1277       H  0.44553229  0.16327483  0.73433670     0.33600
H1278       H  0.43814529  0.19544425  0.74002730     0.38100
H1279       H  0.56209724  0.22784834  0.71963626     0.33500
H1280       H  0.56690187  0.20973734  0.74724948     0.30200
H1281       H  0.56019278  0.16919611  0.80784235     0.33500
H1282       H  0.55018700  0.19239782  0.78599248     0.30200
H1283       H  0.57362226  0.08376925  0.71214964     0.38100
H1284       H  0.56460402  0.10639587  0.68939590     0.33600
C1285       C  0.29953172  0.31901537  0.86588638    -0.20200
C1286       C  0.29978678  0.29575921  0.84990251     0.36000
C1287       C  0.32121206  0.29109612  0.83256148    -0.26200
C1288       C  0.34247179  0.30920212  0.83086636     0.02500
C1289       C  0.34331006  0.33141933  0.84810676     0.27300
C1290       C  0.32183880  0.33609236  0.86556607    -0.25300
N1291       N  0.27821552  0.27695447  0.85096102    -0.82700
H1292       H  0.32058442  0.27393477  0.81936751     0.13100
C1293       C  0.36116809  0.30683850  0.80815247     0.02400
N1294       N  0.36555885  0.34954651  0.84709650    -0.81200
H1295       H  0.32202763  0.35375619  0.87807003     0.17900
C1296       C  0.35980457  0.32616544  0.78798073    -0.26100
C1297       C  0.37353015  0.32277808  0.76384041     0.36000
C1298       C  0.38911203  0.29966465  0.75995850    -0.20100
C1299       C  0.39182706  0.28107623  0.78073345    -0.25400
C1300       C  0.37770733  0.28434503  0.80484330     0.27300
H1301       H  0.34695376  0.34334769  0.79062541     0.13100
N1302       N  0.37117563  0.34233754  0.74292059    -0.82600
H1303       H  0.40382346  0.26337160  0.77760680     0.17900
N1304       N  0.37937878  0.26462821  0.82562240    -0.81200
H1305       H  0.35873981  0.35799270  0.74886706     0.33600
H1306       H  0.39007517  0.35064141  0.73976724     0.38100
H1307       H  0.39221953  0.24919856  0.81996359     0.33500
H1308       H  0.38795078  0.27381525  0.84229210     0.30200
H1309       H  0.36306737  0.36499390  0.86092964     0.33500
H1310       H  0.38249864  0.33894712  0.85297919     0.30200
H1311       H  0.27013868  0.27524252  0.83179524     0.38100
H1312       H  0.28597060  0.25835704  0.85635207     0.33600
C1313       C  0.35740674  0.49639713  0.70826598    -0.20200
C1314       C  0.37107601  0.47979742  0.72653029     0.36000
C1315       C  0.38199362  0.45551522  0.71758952    -0.26200
C1316       C  0.37991955  0.44752529  0.69078299     0.02500
C1317       C  0.36694910  0.46447502  0.67240350     0.27300
C1318       C  0.35563142  0.48855943  0.68138580    -0.25300
N1319       N  0.37242242  0.48675136  0.75437200    -0.82700
H1320       H  0.39144683  0.44229140  0.73182756     0.13100
C1321       C  0.38932674  0.42036238  0.68295504     0.02400
N1322       N  0.36504758  0.45699203  0.64474898    -0.81200
H1323       H  0.34517686  0.50123655  0.66734810     0.17900
C1324       C  0.37126833  0.40260314  0.67103172    -0.26100
C1325       C  0.37811225  0.37587864  0.66588718     0.36000
C1326       C  0.40351158  0.36623333  0.67374345    -0.20100
C1327       C  0.42201800  0.38445724  0.68455422    -0.25400
C1328       C  0.41529318  0.41141157  0.68896308     0.27300
H1329       H  0.35129557  0.40941631  0.66649095     0.13100
N1330       N  0.35878146  0.35836624  0.65386822    -0.82600
H1331       H  0.44163092  0.37751231  0.69028500     0.17900
N1332       N  0.43455416  0.42962867  0.69998124    -0.81200
H1333       H  0.34070851  0.36826684  0.65081185     0.33600
H1334       H  0.36591915  0.35332063  0.63489119     0.38100
H1335       H  0.45266769  0.41992780  0.70340323     0.33500
H1336       H  0.43829287  0.44433802  0.68561935     0.30200
H1337       H  0.35473149  0.47150106  0.63390086     0.33500
H1338       H  0.38441294  0.45643732  0.63699783     0.30200
H1339       H  0.38531976  0.50308456  0.75612099     0.38100
H1340       H  0.38110332  0.47131700  0.76538654     0.33600
C1341       C  0.30982784  0.59811086  0.63489152    -0.20200
C1342       C  0.31211621  0.57787306  0.61523348     0.36000
C1343       C  0.30838229  0.58433553  0.58806671    -0.26200
C1344       C  0.30231089  0.61047152  0.58016169     0.02500
C1345       C  0.29999746  0.63068248  0.59962949     0.27300
C1346       C  0.30419707  0.62438717  0.62664427    -0.25300
N1347       N  0.31786439  0.55082067  0.62286051    -0.82700
H1348       H  0.30972608  0.56885568  0.57299802     0.13100
C1349       C  0.29606493  0.61626564  0.55180806     0.02400
N1350       N  0.29170310  0.65713448  0.59208916    -0.81200
H1351       H  0.30177513  0.63995359  0.64148074     0.17900
C1352       C  0.27039855  0.61054066  0.54227861    -0.26100
C1353       C  0.26181227  0.62013214  0.51731095     0.36000
C1354       C  0.27932016  0.63594383  0.50176505    -0.20100
C1355       C  0.30571418  0.63973448  0.51044342    -0.25400
C1356       C  0.31439708  0.62971005  0.53516844     0.27300
H1357       H  0.25657776  0.59975750  0.55501230     0.13100
N1358       N  0.23499201  0.61512701  0.50848506    -0.82600
H1359       H  0.31938058  0.65127878  0.49821256     0.17900
N1360       N  0.34170036  0.63299023  0.54333355    -0.81200
H1361       H  0.22496426  0.60274281  0.52201765     0.33600
H1362       H  0.22486241  0.63335846  0.50850218     0.38100
H1363       H  0.35266710  0.64282309  0.52849690     0.33500
H1364       H  0.34219809  0.64527566  0.56016874     0.30200
H1365       H  0.28967656  0.66930286  0.60894362     0.33500
H1366       H  0.30674426  0.66572104  0.58046280     0.30200
H1367       H  0.33700716  0.55060297  0.63109302     0.38100
H1368       H  0.31842414  0.53838571  0.60608749     0.33600
C1369       C  0.26932578  0.51287741  0.78237455    -0.20200
C1370       C  0.26439961  0.48584877  0.77561502     0.36000
C1371       C  0.25350011  0.46867467  0.79489482    -0.26200
C1372       C  0.24735513  0.47762365  0.82079488     0.02500
C1373       C  0.25120177  0.50484282  0.82713729     0.27300
C1374       C  0.26244277  0.52210087  0.80795061    -0.25300
N1375       N  0.27117960  0.47475301  0.74996175    -0.82700
H1376       H  0.25095274  0.44775892  0.78990551     0.13100
C1377       C  0.23938212  0.45760905  0.84144376     0.02400
N1378       N  0.24404614  0.51472490  0.85313189    -0.81200
H1379       H  0.26633617  0.54277290  0.81310363     0.17900
C1380       C  0.25435863  0.45551347  0.86503298    -0.26100
C1381       C  0.25049317  0.43419017  0.88300455     0.36000
C1382       C  0.23165149  0.41398241  0.87686071    -0.20100
C1383       C  0.21537033  0.41726977  0.85420618    -0.25400
C1384       C  0.21889795  0.43888951  0.83660780     0.27300
H1385       H  0.27008449  0.46988774  0.86882830     0.13100
N1386       N  0.26674907  0.43230841  0.90654466    -0.82600
H1387       H  0.20041461  0.40231842  0.84959866     0.17900
N1388       N  0.20229173  0.44148258  0.81337820    -0.81200
H1389       H  0.28047651  0.44804527  0.90730488     0.33600
H1390       H  0.25417410  0.43474597  0.92304708     0.38100
H1391       H  0.18832227  0.42596678  0.81255098     0.33500
H1392       H  0.19149503  0.45920998  0.81538215     0.30200
H1393       H  0.24824709  0.53513961  0.85462323     0.33500
H1394       H  0.22339147  0.51265792  0.85518272     0.30200
H1395       H  0.27930354  0.48896377  0.73706924     0.38100
H1396       H  0.28597389  0.46039290  0.75299273     0.33600
C1397       C  0.31409093  0.63329164  0.80697826    -0.20200
C1398       C  0.29601891  0.62566567  0.82731733     0.36000
C1399       C  0.29000013  0.64385118  0.84790386    -0.26200
C1400       C  0.30164611  0.66934193  0.84839533     0.02500
C1401       C  0.32044486  0.67653997  0.82867479     0.27300
C1402       C  0.32653474  0.65840014  0.80824474    -0.25300
N1403       N  0.28304297  0.60004069  0.82641327    -0.82700
H1404       H  0.27547244  0.63856348  0.86307200     0.13100
C1405       C  0.29209944  0.68960973  0.86766109     0.02400
N1406       N  0.33258483  0.70260816  0.82899180    -0.81200
H1407       H  0.34060173  0.66414988  0.79279938     0.17900
C1408       C  0.30997707  0.70038792  0.88630905    -0.26100
C1409       C  0.30364772  0.72374927  0.90052661     0.36000
C1410       C  0.27877138  0.73611994  0.89622183    -0.20100
C1411       C  0.26019255  0.72422155  0.87900188    -0.25400
C1412       C  0.26662159  0.70105196  0.86460310     0.27300
H1413       H  0.32956318  0.69154207  0.88840620     0.13100
N1414       N  0.32305865  0.73597079  0.91778854    -0.82600
H1415       H  0.24119830  0.73393830  0.87564507     0.17900
N1416       N  0.24798445  0.68996440  0.84579840    -0.81200
H1417       H  0.34026701  0.72426502  0.91879916     0.33600
H1418       H  0.32878664  0.75413118  0.90915958     0.38100
H1419       H  0.23010313  0.70065927  0.84609462     0.33500
H1420       H  0.25604805  0.69235492  0.82666611     0.30200
H1421       H  0.34614528  0.70464544  0.81322416     0.33500
H1422       H  0.31755363  0.71666424  0.82572017     0.30200
H1423       H  0.27077093  0.59975292  0.80955259     0.38100
H1424       H  0.27052405  0.59752858  0.84295766     0.33600
C1425       C  0.40049373  0.62221279  0.73980102    -0.20200
C1426       C  0.41399345  0.63550448  0.71881586     0.36000
C1427       C  0.43516056  0.65305220  0.72488651    -0.26200
C1428       C  0.44278969  0.65759220  0.75142738     0.02500
C1429       C  0.42985770  0.64385287  0.77227878     0.27300
C1430       C  0.40909495  0.62608958  0.76624355    -0.25300
N1431       N  0.40587386  0.63153887  0.69158877    -0.82700
H1432       H  0.44525300  0.66378937  0.70900728     0.13100
C1433       C  0.46298725  0.67816726  0.75771876     0.02400
N1434       N  0.43704755  0.64902391  0.79960335    -0.81200
H1435       H  0.39855381  0.61641100  0.78251088     0.17900
C1436       C  0.45430869  0.70400049  0.76394011    -0.26100
C1437       C  0.47213247  0.72325934  0.77384788     0.36000
C1438       C  0.49920919  0.71642469  0.77749289    -0.20100
C1439       C  0.50802105  0.69076983  0.77038183    -0.25400
C1440       C  0.49012888  0.67156609  0.76034718     0.27300
H1441       H  0.43332480  0.70877044  0.76205229     0.13100
N1442       N  0.46259180  0.74927614  0.78137932    -0.82600
H1443       H  0.52881062  0.68560153  0.77310139     0.17900
N1444       N  0.49927838  0.64535413  0.75309913    -0.81200
H1445       H  0.44224601  0.75108114  0.77724421     0.33600
H1446       H  0.46458424  0.75105183  0.80209709     0.38100
H1447       H  0.51988017  0.64385235  0.75587321     0.33500
H1448       H  0.49045919  0.63163191  0.76615880     0.30200
H1449       H  0.42506698  0.63790015  0.81263277     0.33500
H1450       H  0.45658615  0.64237122  0.80236017     0.30200
H1451       H  0.40935201  0.61151308  0.68682391     0.38100
H1452       H  0.41770763  0.64293194  0.67865642     0.33600
C1453       C  0.62268732  0.51580227  0.27951988    -0.20200
C1454       C  0.59518343  0.51749724  0.28553535     0.36000
C1455       C  0.58412204  0.54248216  0.29265299    -0.26200
C1456       C  0.60002279  0.56568019  0.29365570     0.02500
C1457       C  0.62729328  0.56392317  0.28693447     0.27300
C1458       C  0.63830637  0.53910115  0.28038934    -0.25300
N1459       N  0.57875211  0.49394861  0.28482680    -0.82700
H1460       H  0.56315223  0.54384702  0.29769857     0.13100
C1461       C  0.58847951  0.59205793  0.30124779     0.02400
N1462       N  0.64367318  0.58755476  0.28633437    -0.81200
H1463       H  0.65928808  0.53808212  0.27526251     0.17900
C1464       C  0.60061086  0.60678836  0.32184096    -0.26100
C1465       C  0.59460557  0.63390413  0.32594814     0.36000
C1466       C  0.57557115  0.64645585  0.30949435    -0.20100
C1467       C  0.56152786  0.63100669  0.29068309    -0.25400
C1468       C  0.56801567  0.60402598  0.28613280     0.27300
H1469       H  0.61588536  0.59738756  0.33386801     0.13100
N1470       N  0.60823298  0.64887949  0.34629424    -0.82600
H1471       H  0.54672336  0.64049318  0.27815007     0.17900
N1472       N  0.55487511  0.58923106  0.26533484    -0.81200
H1473       H  0.62179133  0.63675553  0.35646207     0.33600
H1474       H  0.59398321  0.65490599  0.36031426     0.38100
H1475       H  0.54023459  0.60090324  0.25619766     0.33500
H1476       H  0.56906193  0.58493901  0.25062455     0.30200
H1477       H  0.66332774  0.58284993  0.28119526     0.33500
H1478       H  0.63642094  0.59992200  0.27118205     0.30200
H1479       H  0.58551634  0.48103454  0.29974850     0.38100
H1480       H  0.55901098  0.49866660  0.28960817     0.33600
C1481       C  0.70351489  0.26460117  0.10540332    -0.20200
C1482       C  0.71515420  0.27000722  0.13050169     0.36000
C1483       C  0.70773616  0.29309945  0.14445805    -0.26200
C1484       C  0.68886252  0.31083283  0.13398491     0.02500
C1485       C  0.67837559  0.30635476  0.10827092     0.27300
C1486       C  0.68607478  0.28334075  0.09403116    -0.25300
N1487       N  0.73403837  0.25172352  0.14195266    -0.82700
H1488       H  0.71597766  0.29686687  0.16410724     0.13100
C1489       C  0.67864084  0.33228135  0.15161983     0.02400
N1490       N  0.65918158  0.32453323  0.09726067    -0.81200
H1491       H  0.67718947  0.27920005  0.07475384     0.17900
C1492       C  0.68381680  0.35924923  0.14584686    -0.26100
C1493       C  0.67726157  0.37950782  0.16434994     0.36000
C1494       C  0.66562639  0.37234766  0.18911458    -0.20100
C1495       C  0.65898216  0.34545073  0.19383403    -0.25400
C1496       C  0.66528906  0.32544005  0.17541282     0.27300
H1497       H  0.69385002  0.36435242  0.12734421     0.13100
N1498       N  0.68364704  0.40691289  0.15862485    -0.82600
H1499       H  0.64932328  0.33984674  0.21240322     0.17900
N1500       N  0.65886448  0.29798748  0.18106072    -0.81200
H1501       H  0.69337868  0.40847240  0.14019573     0.33600
H1502       H  0.66564815  0.41718972  0.15656917     0.38100
H1503       H  0.64937681  0.29623727  0.19960012     0.33500
H1504       H  0.64514287  0.29161489  0.16669739     0.30200
H1505       H  0.65342884  0.31835772  0.07816486     0.33500
H1506       H  0.64209912  0.32366871  0.10924499     0.30200
H1507       H  0.75081648  0.25143424  0.12951992     0.38100
H1508       H  0.74049964  0.25851933  0.16060710     0.33600
C1509       C  0.58277665  0.38259515  0.25893780    -0.20200
C1510       C  0.55892783  0.39314101  0.24829153     0.36000
C1511       C  0.53812653  0.37568564  0.24087575    -0.26200
C1512       C  0.54074547  0.34795300  0.24372658     0.02500
C1513       C  0.56403059  0.33742886  0.25536583     0.27300
C1514       C  0.58459757  0.35488443  0.26327674    -0.25300
N1515       N  0.55629911  0.42142711  0.24420584    -0.82700
H1516       H  0.52025723  0.38361378  0.23171710     0.13100
C1517       C  0.52081556  0.33005752  0.23103424     0.02400
N1518       N  0.56754046  0.30898155  0.25721531    -0.81200
H1519       H  0.60298124  0.34657420  0.27095642     0.17900
C1520       C  0.52346153  0.32457013  0.20371487    -0.26100
C1521       C  0.50604692  0.30680920  0.19070614     0.36000
C1522       C  0.48545773  0.29417970  0.20541566    -0.20100
C1523       C  0.48259406  0.30002903  0.23276115    -0.25400
C1524       C  0.49988455  0.31814309  0.24565834     0.27300
H1525       H  0.53954034  0.33391000  0.19259490     0.13100
N1526       N  0.50967086  0.30105774  0.16277971    -0.82600
H1527       H  0.46664009  0.29064618  0.24401039     0.17900
N1528       N  0.49582547  0.32502271  0.27324874    -0.81200
H1529       H  0.52546432  0.31224525  0.15489383     0.33600
H1530       H  0.51513797  0.28098174  0.16109846     0.38100
H1531       H  0.47916676  0.31500761  0.28091685     0.33500
H1532       H  0.51223788  0.31828399  0.28410716     0.30200
H1533       H  0.58624949  0.30445128  0.26517745     0.33500
H1534       H  0.55345927  0.30157971  0.27072422     0.30200
H1535       H  0.55692281  0.43058615  0.26296628     0.38100
H1536       H  0.53769158  0.42590775  0.23598035     0.33600
C1537       C  0.70474923  0.49730767  0.20279616    -0.20200
C1538       C  0.69035198  0.51838272  0.19101516     0.36000
C1539       C  0.70276799  0.53507516  0.17229686    -0.26200
C1540       C  0.72947791  0.53132044  0.16487071     0.02500
C1541       C  0.74417532  0.51046008  0.17673879     0.27300
C1542       C  0.73170164  0.49374850  0.19580697    -0.25300
N1543       N  0.66328491  0.52348319  0.19866018    -0.82700
H1544       H  0.69149877  0.55139438  0.16369831     0.13100
C1545       C  0.74132640  0.55027151  0.14522122     0.02400
N1546       N  0.77148611  0.50618016  0.16918138    -0.81200
H1547       H  0.74286116  0.47761861  0.20485710     0.17900
C1548       C  0.76168597  0.56777987  0.15319946    -0.26100
C1549       C  0.76834898  0.59028473  0.13766102     0.36000
C1550       C  0.75424463  0.59556799  0.11375145    -0.20100
C1551       C  0.73611687  0.57617169  0.10445387    -0.25400
C1552       C  0.72953911  0.55366720  0.11992389     0.27300
H1553       H  0.77124425  0.56498372  0.17238914     0.13100
N1554       N  0.78875527  0.60812437  0.14679687    -0.82600
H1555       H  0.72560190  0.57937252  0.08585830     0.17900
N1556       N  0.70987477  0.53488129  0.11070832    -0.81200
H1557       H  0.80641872  0.59724273  0.14870841     0.33600
H1558       H  0.78335484  0.61505840  0.16574912     0.38100
H1559       H  0.70280087  0.54033736  0.09185473     0.33500
H1560       H  0.71935032  0.51644499  0.10839027     0.30200
H1561       H  0.77944062  0.49002636  0.17970674     0.33500
H1562       H  0.77171081  0.50084960  0.14898672     0.30200
H1563       H  0.65146495  0.52260668  0.18149994     0.38100
H1564       H  0.66223272  0.54289559  0.20629775     0.33600
C1565       C  0.67173400  0.42308563  0.35751243    -0.20200
C1566       C  0.66076370  0.40027391  0.37023930     0.36000
C1567       C  0.66558699  0.39600649  0.39752225    -0.26200
C1568       C  0.68074815  0.41410253  0.41253113     0.02500
C1569       C  0.68962525  0.43799955  0.40061087     0.27300
C1570       C  0.68505066  0.44228381  0.37320255    -0.25300
N1571       N  0.64544427  0.38108434  0.35533686    -0.82700
H1572       H  0.65856607  0.37776693  0.40687592     0.13100
C1573       C  0.68984091  0.40577941  0.43945426     0.02400
N1574       N  0.70394100  0.45736124  0.41623188    -0.81200
H1575       H  0.69314590  0.46005456  0.36384427     0.17900
C1576       C  0.71704828  0.40061923  0.44330678    -0.26100
C1577       C  0.72612169  0.38723035  0.46625309     0.36000
C1578       C  0.70745694  0.37887955  0.48577653    -0.20100
C1579       C  0.68043271  0.38562974  0.48259671    -0.25400
C1580       C  0.67146108  0.39905500  0.45967132     0.27300
H1581       H  0.73106506  0.40564574  0.42757244     0.13100
N1582       N  0.75382244  0.38032636  0.46869027    -0.82600
H1583       H  0.66610046  0.37956845  0.49766765     0.17900
N1584       N  0.64365129  0.40504112  0.45632404    -0.81200
H1585       H  0.76440663  0.38612062  0.45162130     0.33600
H1586       H  0.76167590  0.39153182  0.48445002     0.38100
H1587       H  0.63268535  0.39856388  0.47289926     0.33500
H1588       H  0.64178981  0.42582620  0.45563841     0.30200
H1589       H  0.70922566  0.47381729  0.40448192     0.33500
H1590       H  0.69091736  0.46443049  0.43094453     0.30200
H1591       H  0.62812444  0.39064793  0.34882258     0.38100
H1592       H  0.63927231  0.36532139  0.36759928     0.33600
C1593       C  0.62931753  0.32491469  0.57982881    -0.20200
C1594       C  0.61963865  0.33230406  0.60548548     0.36000
C1595       C  0.59330053  0.32590897  0.61271621    -0.26200
C1596       C  0.57621562  0.31285855  0.59493121     0.02500
C1597       C  0.58490812  0.30733474  0.56878352     0.27300
C1598       C  0.61136751  0.31341768  0.56146219    -0.25300
N1599       N  0.63675907  0.34510922  0.62464641    -0.82700
H1600       H  0.58623861  0.33034459  0.63270697     0.13100
C1601       C  0.55020848  0.30309711  0.60504965     0.02400
N1602       N  0.56702365  0.29505212  0.55001075    -0.81200
H1603       H  0.61827835  0.30805917  0.54166538     0.17900
C1604       C  0.52760822  0.31940935  0.60327182    -0.26100
C1605       C  0.50347086  0.31183789  0.61558488     0.36000
C1606       C  0.50209383  0.28751848  0.62979016    -0.20100
C1607       C  0.52441191  0.27072702  0.63055567    -0.25400
C1608       C  0.54858027  0.27840665  0.61851112     0.27300
H1609       H  0.52905215  0.33835364  0.59289625     0.13100
N1610       N  0.48044331  0.32880187  0.61402706    -0.82600
H1611       H  0.52332903  0.25217229  0.64166836     0.17900
N1612       N  0.57184153  0.26183385  0.62085071    -0.81200
H1613       H  0.48476321  0.34595500  0.60289938     0.33600
H1614       H  0.46570487  0.31839117  0.60353337     0.38100
H1615       H  0.56749610  0.24463268  0.63189310     0.33500
H1616       H  0.57707419  0.25544890  0.60166842     0.30200
H1617       H  0.57641049  0.29255179  0.53151367     0.33500
H1618       H  0.56246468  0.27591620  0.55704057     0.30200
H1619       H  0.64106277  0.36423097  0.61739995     0.38100
H1620       H  0.62687653  0.34781905  0.64285619     0.33600
C1621       C  0.69646616  0.23835328  0.58567522    -0.20200
C1622       C  0.71678878  0.21903453  0.58695804     0.36000
C1623       C  0.71223733  0.19541964  0.60153708    -0.26200
C1624       C  0.68795400  0.19120601  0.61497688     0.02500
C1625       C  0.66721838  0.20999544  0.61242648     0.27300
C1626       C  0.67163701  0.23325463  0.59752559    -0.25300
N1627       N  0.74235419  0.22417605  0.57493616    -0.82700
H1628       H  0.72816791  0.18102292  0.60384663     0.13100
C1629       C  0.68603631  0.16992245  0.63539940     0.02400
N1630       N  0.64235848  0.20616125  0.62631285    -0.81200
H1631       H  0.65621083  0.24836854  0.59659953     0.17900
C1632       C  0.70193090  0.17274003  0.65818548    -0.26100
C1633       C  0.69818361  0.15641216  0.68062342     0.36000
C1634       C  0.67778108  0.13680772  0.68043608    -0.20100
C1635       C  0.66278929  0.13311982  0.65695242    -0.25400
C1636       C  0.66667297  0.14936669  0.63445366     0.27300
H1637       H  0.71677649  0.18850971  0.65881548     0.13100
N1638       N  0.71500049  0.15984163  0.70356801    -0.82600
H1639       H  0.64744558  0.11786391  0.65617183     0.17900
N1640       N  0.65070345  0.14438399  0.61114825    -0.81200
H1641       H  0.72880259  0.17523217  0.70048370     0.33600
H1642       H  0.72601614  0.14230934  0.70554673     0.38100
H1643       H  0.63091198  0.14880792  0.61599388     0.33500
H1644       H  0.65617029  0.15676094  0.59526791     0.30200
H1645       H  0.64626078  0.20700916  0.64680505     0.33500
H1646       H  0.62917763  0.22176793  0.62216727     0.30200
H1647       H  0.75099873  0.24032022  0.58499305     0.38100
H1648       H  0.75507097  0.20790109  0.57774844     0.33600
C1649       C  0.79302352  0.30835367  0.62390467    -0.20200
C1650       C  0.78894176  0.28743681  0.64254033     0.36000
C1651       C  0.80791513  0.28266035  0.66236374    -0.26200
C1652       C  0.83097737  0.29827441  0.66417782     0.02500
C1653       C  0.83629318  0.31780460  0.64462875     0.27300
C1654       C  0.81732531  0.32252491  0.62446881    -0.25300
N1655       N  0.76524343  0.27137927  0.64200078    -0.82700
H1656       H  0.80397834  0.26747628  0.67731593     0.13100
C1657       C  0.84694632  0.29643598  0.68884211     0.02400
N1658       N  0.86032295  0.33345749  0.64600581    -0.81200
H1659       H  0.82091695  0.33834191  0.61013543     0.17900
C1660       C  0.87235280  0.28481009  0.68848382    -0.26100
C1661       C  0.88691392  0.28177120  0.71226994     0.36000
C1662       C  0.87593033  0.29069629  0.73664154    -0.20100
C1663       C  0.85050257  0.30239221  0.73675583    -0.25400
C1664       C  0.83598297  0.30547089  0.71312835     0.27300
H1665       H  0.88063154  0.27762203  0.66981727     0.13100
N1666       N  0.91234201  0.26883191  0.71172775    -0.82600
H1667       H  0.84201002  0.30950379  0.75536000     0.17900
N1668       N  0.81003442  0.31766390  0.71361618    -0.81200
H1669       H  0.90971900  0.24967328  0.70382366     0.33600
H1670       H  0.92480116  0.27952326  0.69879283     0.38100
H1671       H  0.80469896  0.32295467  0.73310968     0.33500
H1672       H  0.81123545  0.33543391  0.70270113     0.30200
H1673       H  0.86127499  0.34690689  0.63005300     0.33500
H1674       H  0.85945444  0.34492831  0.66343955     0.30200
H1675       H  0.75552501  0.27340906  0.66039046     0.38100
H1676       H  0.77086147  0.25139674  0.63983066     0.33600
C1677       C  0.73508984  0.40676201  0.61372183    -0.20200
C1678       C  0.74856490  0.42981276  0.60422280     0.36000
C1679       C  0.75453157  0.45069307  0.62212888    -0.26200
C1680       C  0.74722889  0.44919268  0.64917189     0.02500
C1681       C  0.73241430  0.42710934  0.65830235     0.27300
C1682       C  0.72620784  0.40638420  0.64047626    -0.25300
N1683       N  0.75695254  0.43168899  0.57680874    -0.82700
H1684       H  0.76571121  0.46791145  0.61520160     0.13100
C1685       C  0.75752049  0.46945264  0.66824639     0.02400
N1686       N  0.72481497  0.42520905  0.68595737    -0.81200
H1687       H  0.71554981  0.38914243  0.64808619     0.17900
C1688       C  0.73980024  0.48560938  0.68276221    -0.26100
C1689       C  0.74923348  0.50431832  0.70161756     0.36000
C1690       C  0.77698940  0.50673589  0.70606362    -0.20100
C1691       C  0.79454346  0.49046865  0.69136275    -0.25400
C1692       C  0.78512783  0.47173491  0.67279655     0.27300
H1693       H  0.71856975  0.48363840  0.67926737     0.13100
N1694       N  0.73078392  0.52097581  0.71592533    -0.82600
H1695       H  0.81582081  0.49188528  0.69482736     0.17900
N1696       N  0.80347439  0.45457073  0.65890439    -0.81200
H1697       H  0.71115820  0.51645584  0.71050652     0.33600
H1698       H  0.73425544  0.54071148  0.71000166     0.38100
H1699       H  0.82312846  0.45883599  0.66441711     0.33500
H1700       H  0.79963760  0.43496438  0.66503607     0.30200
H1701       H  0.71390970  0.40772448  0.68945962     0.33500
H1702       H  0.74228051  0.42366498  0.69722196     0.30200
H1703       H  0.73975169  0.43254787  0.56507309     0.38100
H1704       H  0.76731518  0.44952593  0.57342850     0.33600
C1705       C  0.75293294  0.39718697  0.27932623    -0.20200
C1706       C  0.77162062  0.40683861  0.29824607     0.36000
C1707       C  0.79504965  0.39217852  0.30307850    -0.26200
C1708       C  0.79981093  0.36808325  0.28972206     0.02500
C1709       C  0.78222194  0.35944797  0.26962699     0.27300
C1710       C  0.75902141  0.37411366  0.26455538    -0.25300
N1711       N  0.76610126  0.43044807  0.31363258    -0.82700
H1712       H  0.80873177  0.39857021  0.31855493     0.13100
C1713       C  0.82068434  0.34982794  0.29951991     0.02400
N1714       N  0.78745222  0.33505394  0.25539799    -0.81200
H1715       H  0.74504815  0.36684640  0.24973743     0.17900
C1716       C  0.81245487  0.32692177  0.31334585    -0.26100
C1717       C  0.83081293  0.30729227  0.32075206     0.36000
C1718       C  0.85795976  0.31073467  0.31418252    -0.20100
C1719       C  0.86651241  0.33437127  0.30172355    -0.25400
C1720       C  0.84794816  0.35396257  0.29402348     0.27300
H1721       H  0.79146216  0.32410243  0.31776558     0.13100
N1722       N  0.82201293  0.28367078  0.33460662    -0.82600
H1723       H  0.88742718  0.33688915  0.29681138     0.17900
N1724       N  0.85647459  0.37751958  0.27998580    -0.81200
H1725       H  0.80139961  0.28416863  0.33775551     0.33600
H1726       H  0.83088561  0.28375416  0.35349397     0.38100
H1727       H  0.87718517  0.37747127  0.27751058     0.33500
H1728       H  0.84823125  0.37677877  0.26083113     0.30200
H1729       H  0.77239463  0.33123049  0.24148689     0.33500
H1730       H  0.80506780  0.33778861  0.24451642     0.30200
H1731       H  0.74990543  0.42617897  0.32612868     0.38100
H1732       H  0.78212983  0.43501135  0.32617209     0.33600
C1733       C  0.87661521  0.24270726  0.40185236    -0.20200
C1734       C  0.88335375  0.26128963  0.42214008     0.36000
C1735       C  0.86507532  0.26635056  0.44290064    -0.26200
C1736       C  0.84046192  0.25302065  0.44419016     0.02500
C1737       C  0.83488443  0.23264778  0.42560296     0.27300
C1738       C  0.85297129  0.22767243  0.40471510    -0.25300
N1739       N  0.90787548  0.27617609  0.42084563    -0.82700
H1740       H  0.86942200  0.28188612  0.45733109     0.13100
C1741       C  0.81967865  0.26271270  0.46310682     0.02400
N1742       N  0.81034837  0.21783440  0.42743979    -0.81200
H1743       H  0.84776700  0.21293758  0.38974756     0.17900
C1744       C  0.79521831  0.27158969  0.45280067    -0.26100
C1745       C  0.77599243  0.28364853  0.46929965     0.36000
C1746       C  0.78129060  0.28682276  0.49681021    -0.20100
C1747       C  0.80553817  0.27741566  0.50723170    -0.25400
C1748       C  0.82469842  0.26522347  0.49070095     0.27300
H1749       H  0.79155853  0.27007673  0.43152687     0.13100
N1750       N  0.75165394  0.29367410  0.45798446    -0.82600
H1751       H  0.80957546  0.27968120  0.52837118     0.17900
N1752       N  0.84929241  0.25556220  0.50174015    -0.81200
H1753       H  0.75080172  0.28956293  0.43752479     0.33600
H1754       H  0.75193058  0.31447988  0.45985781     0.38100
H1755       H  0.84994106  0.25900716  0.52232982     0.33500
H1756       H  0.84963819  0.23484728  0.49911164     0.30200
H1757       H  0.80906268  0.20375993  0.41206174     0.33500
H1758       H  0.81073278  0.20711793  0.44535818     0.30200
H1759       H  0.92347676  0.26261242  0.42345712     0.38100
H1760       H  0.90915734  0.28975842  0.43666233     0.33600
C1761       C  0.98612140  0.30222733  0.27864893    -0.20200
C1762       C  0.97969353  0.32948818  0.27496158     0.36000
C1763       C  0.99952420  0.34739064  0.26580895    -0.26200
C1764       C  0.02557602  0.33857484  0.26056659     0.02500
C1765       C  0.03191085  0.31141290  0.26418368     0.27300
C1766       C  0.01205073  0.29349282  0.27269541    -0.25300
N1767       N  0.95327292  0.33892311  0.28085515    -0.82700
H1768       H  0.99491196  0.36839432  0.26349158     0.13100
C1769       C  0.04712463  0.35814916  0.25473560     0.02400
N1770       N  0.05893286  0.30245854  0.26075212    -0.81200
H1771       H  0.01725461  0.27276744  0.27605541     0.17900
C1772       C  0.06052009  0.36967081  0.27634866    -0.26100
C1773       C  0.08381341  0.38486440  0.27258728     0.36000
C1774       C  0.09374048  0.38919872  0.24640128    -0.20100
C1775       C  0.07971335  0.37834773  0.22460902    -0.25400
C1776       C  0.05639637  0.36292064  0.22852988     0.27300
H1777       H  0.05345098  0.36563345  0.29642768     0.13100
N1778       N  0.09818140  0.39463841  0.29544934    -0.82600
H1779       H  0.08718603  0.38158585  0.20454421     0.17900
N1780       N  0.04212470  0.35212935  0.20609181    -0.81200
H1781       H  0.08803241  0.39003909  0.31313320     0.33600
H1782       H  0.11633117  0.38443314  0.29625646     0.38100
H1783       H  0.05134329  0.35775986  0.18819857     0.33500
H1784       H  0.04321567  0.33131840  0.20705219     0.30200
H1785       H  0.06053929  0.28213806  0.26527342     0.33500
H1786       H  0.06389385  0.30445245  0.24057699     0.30200
H1787       H  0.94016031  0.32959178  0.26756801     0.38100
H1788       H  0.95189601  0.35944865  0.27727024     0.33600
C1789       C  0.79940809  0.18864072  0.12624030    -0.20200
C1790       C  0.82422480  0.19819395  0.11673240     0.36000
C1791       C  0.84390348  0.20607191  0.13522500    -0.26200
C1792       C  0.83893016  0.20482452  0.16278487     0.02500
C1793       C  0.81445800  0.19460926  0.17219188     0.27300
C1794       C  0.79497513  0.18676824  0.15386843    -0.25300
N1795       N  0.82899795  0.20073788  0.08853182    -0.82700
H1796       H  0.86282296  0.21389660  0.12820460     0.13100
C1797       C  0.85883555  0.21468147  0.18218856     0.02400
N1798       N  0.80947658  0.19243592  0.20042869    -0.81200
H1799       H  0.77610272  0.17914621  0.16125659     0.17900
C1800       C  0.85166020  0.23601750  0.19884538    -0.26100
C1801       C  0.86630672  0.24175035  0.22194618     0.36000
C1802       C  0.88881846  0.22615194  0.22808842    -0.20100
C1803       C  0.89766511  0.20670049  0.20997498    -0.25400
C1804       C  0.88259139  0.20052396  0.18710465     0.27300
H1805       H  0.83351541  0.24699089  0.19474755     0.13100
N1806       N  0.85773460  0.26244025  0.23993451    -0.82600
H1807       H  0.91501660  0.19481016  0.21484924     0.17900
N1808       N  0.89037939  0.17896299  0.16982729    -0.81200
H1809       H  0.84061592  0.27183198  0.23267316     0.33600
H1810       H  0.87273489  0.27697312  0.24046787     0.38100
H1811       H  0.90835203  0.17062537  0.17625778     0.33500
H1812       H  0.87594185  0.16394377  0.17146556     0.30200
H1813       H  0.79037394  0.18482466  0.20405540     0.33500
H1814       H  0.82294069  0.17853501  0.20815507     0.30200
H1815       H  0.81582002  0.21513769  0.08124614     0.38100
H1816       H  0.84823571  0.20802039  0.08494746     0.33600
C1817       C  0.35959615  0.20037090  0.68859536    -0.20200
C1818       C  0.33457972  0.20489924  0.70097106     0.36000
C1819       C  0.31807338  0.18327935  0.70746743    -0.26200
C1820       C  0.32572148  0.15693799  0.70206477     0.02500
C1821       C  0.35079292  0.15205089  0.69032481     0.27300
C1822       C  0.36747853  0.17378540  0.68369550    -0.25300
N1823       N  0.32538001  0.23139813  0.70655877    -0.82700
H1824       H  0.29866066  0.18720587  0.71617748     0.13100
C1825       C  0.30596794  0.13534509  0.70705917     0.02400
N1826       N  0.35911278  0.12510037  0.68511078    -0.81200
H1827       H  0.38664773  0.16987138  0.67451106     0.17900
C1828       C  0.29606904  0.12059657  0.68534809    -0.26100
C1829       C  0.27258028  0.10534959  0.68784693     0.36000
C1830       C  0.25902524  0.10489317  0.71254156    -0.20100
C1831       C  0.27015857  0.11771715  0.73475404    -0.25400
C1832       C  0.29376489  0.13265803  0.73234288     0.27300
H1833       H  0.30547492  0.12264848  0.66594789     0.13100
N1834       N  0.26157395  0.09173947  0.66507724    -0.82600
H1835       H  0.25963992  0.11718876  0.75368911     0.17900
N1836       N  0.30473922  0.14624209  0.75511885    -0.81200
H1837       H  0.27406927  0.09396535  0.64847395     0.33600
H1838       H  0.24355674  0.10099916  0.66021259     0.38100
H1839       H  0.29326078  0.14243851  0.77216857     0.33500
H1840       H  0.32359886  0.13815191  0.75869266     0.30200
H1841       H  0.37806254  0.12489550  0.67636382     0.33500
H1842       H  0.36083615  0.11539182  0.70351551     0.30200
H1843       H  0.30735042  0.23426630  0.69651325     0.38100
H1844       H  0.32167839  0.23284838  0.72707204     0.33600
C1845       C  0.20163240  0.24149044  0.89179486    -0.20200
C1846       C  0.21916807  0.21980126  0.89515931     0.36000
C1847       C  0.21385314  0.19569354  0.88167145    -0.26200
C1848       C  0.19134007  0.19308051  0.86519695     0.02500
C1849       C  0.17318580  0.21441185  0.86300282     0.27300
C1850       C  0.17853461  0.23836793  0.87636911    -0.25300
N1851       N  0.24303422  0.22286903  0.91072193    -0.82700
H1852       H  0.22779417  0.17925578  0.88309110     0.13100
C1853       C  0.18873540  0.16975395  0.84724574     0.02400
N1854       N  0.15000357  0.21205371  0.84626984    -0.81200
H1855       H  0.16500704  0.25507502  0.87407480     0.17900
C1856       C  0.16597953  0.15345975  0.84877995    -0.26100
C1857       C  0.16020126  0.13475466  0.82860158     0.36000
C1858       C  0.17762684  0.13253670  0.80644201    -0.20100
C1859       C  0.20135332  0.14755169  0.80611449    -0.25400
C1860       C  0.20696071  0.16630006  0.82610126     0.27300
H1861       H  0.15207974  0.15629356  0.86513563     0.13100
N1862       N  0.13596903  0.11939479  0.82977803    -0.82600
H1863       H  0.21504505  0.14558066  0.78945239     0.17900
N1864       N  0.23037916  0.18286605  0.82424341    -0.81200
H1865       H  0.12463272  0.12481762  0.84646437     0.33600
H1866       H  0.14130511  0.09943487  0.83267694     0.38100
H1867       H  0.24181237  0.17765478  0.80755615     0.33500
H1868       H  0.22410338  0.20253026  0.82117983     0.30200
H1869       H  0.13858634  0.22948582  0.84707829     0.33500
H1870       H  0.15656035  0.21015011  0.82652176     0.30200
H1871       H  0.23730548  0.22542118  0.93064385     0.38100
H1872       H  0.25438089  0.20538658  0.91007455     0.33600
C1873       C  0.98443050  0.21528350  0.77692724    -0.20200
C1874       C  0.97868505  0.20237051  0.75254801     0.36000
C1875       C  0.99746361  0.18444320  0.74164730    -0.26200
C1876       C  0.02164141  0.17944225  0.75479383     0.02500
C1877       C  0.02745719  0.19270689  0.77891896     0.27300
C1878       C  0.00871911  0.21035046  0.78980523    -0.25300
N1879       N  0.95370595  0.20707040  0.73935776    -0.82700
H1880       H  0.99320820  0.17419178  0.72307273     0.13100
C1881       C  0.04117794  0.16035990  0.74360564     0.02400
N1882       N  0.05255436  0.18838301  0.79208702    -0.81200
H1883       H  0.01312192  0.22046785  0.80843953     0.17900
C1884       C  0.06184772  0.17011514  0.72751892    -0.26100
C1885       C  0.08415647  0.15423892  0.72147785     0.36000
C1886       C  0.08613874  0.12821120  0.73255692    -0.20100
C1887       C  0.06405546  0.11775889  0.74657382    -0.25400
C1888       C  0.04161318  0.13360469  0.75221319     0.27300
H1889       H  0.06110953  0.19063994  0.72068167     0.13100
N1890       N  0.10513641  0.16490885  0.70498954    -0.82600
H1891       H  0.06487363  0.09768427  0.75458622     0.17900
N1892       N  0.01968270  0.12296353  0.76744787    -0.81200
H1893       H  0.10075922  0.18442819  0.69903585     0.33600
H1894       H  0.10581137  0.15341810  0.68756254     0.38100
H1895       H  0.02292638  0.10284423  0.77196434     0.33500
H1896       H  0.01896049  0.13310057  0.78568603     0.30200
H1897       H  0.05398741  0.20017638  0.80926694     0.33500
H1898       H  0.05303891  0.16852039  0.79848607     0.30200
H1899       H  0.93852992  0.19994439  0.75184001     0.38100
H1900       H  0.95259512  0.19599651  0.72168329     0.33600
C1901       C  0.20345673  0.01032216  0.78646609    -0.20200
C1902       C  0.22994226  0.00104196  0.78381461     0.36000
C1903       C  0.23976937  0.98221428  0.80220538    -0.26200
C1904       C  0.22366580  0.97234273  0.82299704     0.02500
C1905       C  0.19746143  0.98201698  0.82596004     0.27300
C1906       C  0.18780592  0.00107404  0.80792574    -0.25300
N1907       N  0.24672829  0.01063751  0.76255354    -0.82700
H1908       H  0.25995667  0.97482677  0.80009811     0.13100
C1909       C  0.23346575  0.95024763  0.84015987     0.02400
N1910       N  0.18040741  0.97175571  0.84671994    -0.81200
H1911       H  0.16743851  0.00792637  0.81008200     0.17900
C1912       C  0.23321371  0.95298273  0.86810732    -0.26100
C1913       C  0.23886943  0.93115478  0.88491944     0.36000
C1914       C  0.24509961  0.90612966  0.87344094    -0.20100
C1915       C  0.24701648  0.90408965  0.84544148    -0.25400
C1916       C  0.24090466  0.92565415  0.82874016     0.27300
H1917       H  0.22782689  0.97205221  0.87679119     0.13100
N1918       N  0.23785191  0.93424976  0.91344567    -0.82600
H1919       H  0.25172957  0.88506034  0.83630424     0.17900
N1920       N  0.24099934  0.92227211  0.80019691    -0.81200
H1921       H  0.23268031  0.95381943  0.91854966     0.33600
H1922       H  0.25710927  0.93112722  0.92075843     0.38100
H1923       H  0.24709247  0.90299602  0.79500832     0.33500
H1924       H  0.22134763  0.92423092  0.79354755     0.30200
H1925       H  0.16178607  0.98109280  0.84628676     0.33500
H1926       H  0.17700932  0.95152998  0.84273507     0.30200
H1927       H  0.24994339  0.03103130  0.76575657     0.38100
H1928       H  0.26544184  0.00150219  0.76326612     0.33600
C1929       C  0.29961103  0.19032074  0.36359442    -0.20200
C1930       C  0.31211846  0.16971920  0.34909599     0.36000
C1931       C  0.33205112  0.17630799  0.33041842    -0.26200
C1932       C  0.33979246  0.20301043  0.32629745     0.02500
C1933       C  0.32860287  0.22327561  0.34237392     0.27300
C1934       C  0.30826857  0.21676660  0.36052407    -0.25300
N1935       N  0.30362353  0.14245619  0.35241239    -0.82700
H1936       H  0.34045133  0.16074685  0.31796286     0.13100
C1937       C  0.35663744  0.20982311  0.30280137     0.02400
N1938       N  0.33750373  0.25046271  0.33966202    -0.81200
H1939       H  0.29879084  0.23243781  0.37205794     0.17900
C1940       C  0.34681848  0.22836727  0.28425744    -0.26100
C1941       C  0.36016026  0.23328456  0.26020323     0.36000
C1942       C  0.38360818  0.21907963  0.25409063    -0.20100
C1943       C  0.39424330  0.20147972  0.27316018    -0.25400
C1944       C  0.38098838  0.19672773  0.29752605     0.27300
H1945       H  0.32810359  0.23848804  0.28801274     0.13100
N1946       N  0.34970031  0.25263277  0.24193832    -0.82600
H1947       H  0.41233147  0.19058340  0.26859862     0.17900
N1948       N  0.39183283  0.17833384  0.31665965    -0.81200
H1949       H  0.33028539  0.24691847  0.23688721     0.33600
H1950       H  0.34870152  0.27101743  0.25180018     0.38100
H1951       H  0.40973237  0.17025114  0.30964347     0.33500
H1952       H  0.39645945  0.18919116  0.33388542     0.30200
H1953       H  0.32711982  0.26293901  0.35279125     0.33500
H1954       H  0.35753219  0.25113484  0.34538762     0.30200
H1955       H  0.28392424  0.14102330  0.34573682     0.38100
H1956       H  0.31492780  0.12975275  0.34030735     0.33600
C1957       C  0.26962234  0.00057109  0.28856145    -0.20200
C1958       C  0.28321354  0.01068859  0.31123933     0.36000
C1959       C  0.27031257  0.02829852  0.32869629    -0.26200
C1960       C  0.24381968  0.03608507  0.32460103     0.02500
C1961       C  0.22972873  0.02537773  0.30263172     0.27300
C1962       C  0.24281105  0.00794255  0.28475377    -0.25300
N1963       N  0.31044127  0.00383553  0.31644585    -0.82700
H1964       H  0.28154838  0.03671197  0.34516045     0.13100
C1965       C  0.23258085  0.05754723  0.34197579     0.02400
N1966       N  0.20225754  0.03233863  0.29850808    -0.81200
H1967       H  0.23198142  0.00014740  0.26774410     0.17900
C1968       C  0.22255134  0.08076318  0.33005253    -0.26100
C1969       C  0.21709414  0.10375611  0.34520402     0.36000
C1970       C  0.22306987  0.10403441  0.37292014    -0.20100
C1971       C  0.23064032  0.07992447  0.38518354    -0.25400
C1972       C  0.23508554  0.05663724  0.37005835     0.27300
H1973       H  0.22030887  0.08150002  0.30855045     0.13100
N1974       N  0.20664155  0.12708094  0.33217937    -0.82600
H1975       H  0.23433002  0.07947403  0.40648947     0.17900
N1976       N  0.24310914  0.03230386  0.38295817    -0.81200
H1977       H  0.18758349  0.13045859  0.33997776     0.33600
H1978       H  0.20415541  0.12369688  0.31172206     0.38100
H1979       H  0.24417635  0.03495595  0.40364637     0.33500
H1980       H  0.22818051  0.01810317  0.37953247     0.30200
H1981       H  0.19477860  0.02287645  0.28146734     0.33500
H1982       H  0.19136653  0.02495781  0.31474936     0.30200
H1983       H  0.31139384  0.99499680  0.33534515     0.38100
H1984       H  0.32168863  0.02144618  0.31690202     0.33600
C1985       C  0.37984865  0.25872919  0.58949665    -0.20200
C1986       C  0.35935088  0.27597959  0.58078870     0.36000
C1987       C  0.34363872  0.26861479  0.55875331    -0.26200
C1988       C  0.34810323  0.24451793  0.54517196     0.02500
C1989       C  0.37004226  0.22850022  0.55231760     0.27300
C1990       C  0.38587892  0.23592673  0.57425655    -0.25300
N1991       N  0.35408566  0.30048684  0.59479804    -0.82700
H1992       H  0.32710948  0.28115597  0.55277346     0.13100
C1993       C  0.32805697  0.23499798  0.52554201     0.02400
N1994       N  0.37527354  0.20404656  0.53820313    -0.81200
H1995       H  0.40171910  0.22273167  0.58065814     0.17900
C1996       C  0.33545237  0.23032448  0.49889020    -0.26100
C1997       C  0.31686966  0.22044464  0.48023817     0.36000
C1998       C  0.29043609  0.21510210  0.48855829    -0.20100
C1999       C  0.28309227  0.22012453  0.51515536    -0.25400
C2000       C  0.30164717  0.22971198  0.53377575     0.27300
H2001       H  0.35575177  0.23447209  0.49266788     0.13100
N2002       N  0.32462958  0.21618416  0.45290956    -0.82600
H2003       H  0.26290547  0.21581470  0.52165346     0.17900
N2004       N  0.29393591  0.23359700  0.56119319    -0.81200
H2005       H  0.34473909  0.22103357  0.45013519     0.33600
H2006       H  0.31369930  0.22943276  0.44109290     0.38100
H2007       H  0.27378904  0.22890037  0.56395348     0.33500
H2008       H  0.30476866  0.22008220  0.57279459     0.30200
H2009       H  0.39220796  0.19464891  0.54586962     0.33500
H2010       H  0.35922471  0.19112357  0.54167532     0.30200
H2011       H  0.37093422  0.31266790  0.59274843     0.38100
H2012       H  0.33825384  0.31073955  0.58595299     0.33600
C2013       C  0.13402297  0.19862427  0.41009461    -0.20200
C2014       C  0.11901923  0.17764120  0.39893983     0.36000
C2015       C  0.09227107  0.18190696  0.39203730    -0.26200
C2016       C  0.08037210  0.20710597  0.39529527     0.02500
C2017       C  0.09514174  0.22773787  0.40784419     0.27300
C2018       C  0.12154996  0.22311285  0.41544395    -0.25300
N2019       N  0.13096531  0.15209789  0.39430088    -0.82700
H2020       H  0.08108555  0.16579086  0.38287275     0.13100
C2021       C  0.05406960  0.21214728  0.38252677     0.02400
N2022       N  0.08463949  0.25407776  0.41151254    -0.81200
H2023       H  0.13291892  0.23940167  0.42405154     0.17900
C2024       C  0.03248045  0.22163631  0.39769474    -0.26100
C2025       C  0.00788603  0.22772462  0.38562908     0.36000
C2026       C  0.00446653  0.22303277  0.35802354    -0.20100
C2027       C  0.02577649  0.21258833  0.34311423    -0.25400
C2028       C  0.05063021  0.20764079  0.35488863     0.27300
H2029       H  0.03472533  0.22417909  0.41903644     0.13100
N2030       N  0.98642478  0.23853207  0.40130729    -0.82600
H2031       H  0.02339086  0.20932549  0.32184995     0.17900
N2032       N  0.07258054  0.19852982  0.33875901    -0.81200
H2033       H  0.99232802  0.24114632  0.42115716     0.33600
H2034       H  0.97098894  0.22445558  0.40145689     0.38100
H2035       H  0.06670207  0.19601189  0.31888854     0.33500
H2036       H  0.08712799  0.21352885  0.33881133     0.30200
H2037       H  0.06862993  0.25322999  0.42482599     0.33500
H2038       H  0.07798865  0.26127938  0.39309941     0.30200
H2039       H  0.11994056  0.13776028  0.40478350     0.38100
H2040       H  0.12944453  0.14778818  0.37392199     0.33600
C2041       C  0.17290344  0.09743419  0.63508822    -0.20200
C2042       C  0.16498951  0.12255739  0.62466083     0.36000
C2043       C  0.16930573  0.12823890  0.59751322    -0.26200
C2044       C  0.18053676  0.10928427  0.58024702     0.02500
C2045       C  0.18664888  0.08365463  0.59007823     0.27300
C2046       C  0.18287642  0.07803406  0.61732667    -0.25300
N2047       N  0.15331056  0.14255927  0.64163603    -0.82700
H2048       H  0.16465044  0.14795264  0.58993239     0.13100
C2049       C  0.18771858  0.11741968  0.55258313     0.02400
N2050       N  0.19722501  0.06363166  0.57243164    -0.81200
H2051       H  0.18864298  0.05859715  0.62481072     0.17900
C2052       C  0.21421894  0.11463954  0.54401574    -0.26100
C2053       C  0.22274198  0.12472014  0.51924124     0.36000
C2054       C  0.20446317  0.13879798  0.50299135    -0.20100
C2055       C  0.17765141  0.14053194  0.51113464    -0.25400
C2056       C  0.16904285  0.12972711  0.53558177     0.27300
H2057       H  0.22858655  0.10530309  0.55715592     0.13100
N2058       N  0.25017295  0.12186375  0.51133439    -0.82600
H2059       H  0.16341432  0.15086460  0.49861041     0.17900
N2060       N  0.14152629  0.13161296  0.54345965    -0.81200
H2061       H  0.26122537  0.11264754  0.52641823     0.33600
H2062       H  0.25062211  0.10879439  0.49504947     0.38100
H2063       H  0.13039323  0.14137353  0.52878557     0.33500
H2064       H  0.13398025  0.11217002  0.54478392     0.30200
H2065       H  0.20090562  0.04589578  0.58279828     0.33500
H2066       H  0.18256151  0.05929682  0.55825214     0.30200
H2067       H  0.13473117  0.13532740  0.64785451     0.38100
H2068       H  0.14958298  0.16010837  0.63096695     0.33600
C2069       C  0.18485843  0.38033868  0.31070208    -0.20200
C2070       C  0.20341400  0.38836692  0.33036343     0.36000
C2071       C  0.20962677  0.37072845  0.35138349    -0.26200
C2072       C  0.19750074  0.34550667  0.35298061     0.02500
C2073       C  0.17831995  0.33793522  0.33388036     0.27300
C2074       C  0.17221688  0.35541820  0.31295166    -0.25300
N2075       N  0.21657524  0.41383198  0.32835244    -0.82700
H2076       H  0.22454992  0.37622792  0.36602082     0.13100
C2077       C  0.20694460  0.32550548  0.37245644     0.02400
N2078       N  0.16565695  0.31215745  0.33546522    -0.81200
H2079       H  0.15780802  0.34937270  0.29799942     0.17900
C2080       C  0.19020187  0.31797946  0.39365283    -0.26100
C2081       C  0.19463580  0.29406029  0.40754959     0.36000
C2082       C  0.21610044  0.27760449  0.40016283    -0.20100
C2083       C  0.23406604  0.28620206  0.38046706    -0.25400
C2084       C  0.22972649  0.31012907  0.36651841     0.27300
H2085       H  0.17254369  0.32963630  0.39803607     0.13100
N2086       N  0.17609912  0.28543034  0.42758758    -0.82600
H2087       H  0.25047865  0.27333637  0.37476610     0.17900
N2088       N  0.24733917  0.31800074  0.34520047    -0.81200
H2089       H  0.17546281  0.30003747  0.44249709     0.33600
H2090       H  0.15719814  0.28429562  0.41887550     0.38100
H2091       H  0.26323709  0.30462196  0.34355485     0.33500
H2092       H  0.23672094  0.31672726  0.32729141     0.30200
H2093       H  0.15178127  0.30981019  0.32007629     0.33500
H2094       H  0.18031561  0.29765370  0.33240657     0.30200
H2095       H  0.22840680  0.41353264  0.31113058     0.38100
H2096       H  0.22952277  0.41667809  0.34445500     0.33600
C2097       C  0.23202785  0.62131817  0.71502217    -0.20200
C2098       C  0.20774404  0.60793596  0.70925694     0.36000
C2099       C  0.18403649  0.62283393  0.70705533    -0.26200
C2100       C  0.18417660  0.65072638  0.70976066     0.02500
C2101       C  0.20825641  0.66403562  0.71552016     0.27300
C2102       C  0.23165192  0.64923145  0.71854599    -0.25300
N2103       N  0.20704353  0.57946708  0.70558136    -0.82700
H2104       H  0.16541663  0.61274029  0.70266082     0.13100
C2105       C  0.15945802  0.66630833  0.70539956     0.02400
N2106       N  0.20900689  0.69270669  0.71754390    -0.81200
H2107       H  0.24994936  0.65993420  0.72280009     0.17900
C2108       C  0.15096130  0.68407044  0.72533766    -0.26100
C2109       C  0.13110244  0.70295922  0.72017754     0.36000
C2110       C  0.11889769  0.70369629  0.69485479    -0.20100
C2111       C  0.12573943  0.68439289  0.67567937    -0.25400
C2112       C  0.14623943  0.66593112  0.68053107     0.27300
H2113       H  0.16075786  0.68414026  0.74461999     0.13100
N2114       N  0.12372372  0.72166050  0.74055247    -0.82600
H2115       H  0.11637477  0.68488761  0.65619646     0.17900
N2116       N  0.15456131  0.64778701  0.65987985    -0.81200
H2117       H  0.11717494  0.71089793  0.75722841     0.33600
H2118       H  0.14075823  0.73240748  0.74605096     0.38100
H2119       H  0.14271274  0.65002562  0.64286757     0.33500
H2120       H  0.17397911  0.65303337  0.65428194     0.30200
H2121       H  0.22823085  0.69940708  0.72210209     0.33500
H2122       H  0.20434900  0.70049023  0.69874540     0.30200
H2123       H  0.21643772  0.57531689  0.68739278     0.38100
H2124       H  0.18738696  0.57277012  0.70352301     0.33600
C2125       C  0.19844863  0.71810782  0.49316473    -0.20200
C2126       C  0.20026827  0.74443872  0.50338583     0.36000
C2127       C  0.18222635  0.75280432  0.52328582    -0.26200
C2128       C  0.16237849  0.73559780  0.53314317     0.02500
C2129       C  0.16019265  0.70958426  0.52273409     0.27300
C2130       C  0.17800046  0.70123509  0.50277816    -0.25300
N2131       N  0.22040879  0.76255786  0.49381260    -0.82700
H2132       H  0.18373986  0.77282969  0.53137154     0.13100
C2133       C  0.14503089  0.74448775  0.55550293     0.02400
N2134       N  0.14037564  0.69147048  0.53303286    -0.81200
H2135       H  0.17630083  0.68098979  0.49533851     0.17900
C2136       C  0.11724515  0.74542489  0.55219197    -0.26100
C2137       C  0.10026480  0.75257855  0.57349589     0.36000
C2138       C  0.11141139  0.75887974  0.59868841    -0.20100
C2139       C  0.13935831  0.75848495  0.60154981    -0.25400
C2140       C  0.15617255  0.75107630  0.58042531     0.27300
H2141       H  0.10881192  0.74038557  0.53292183     0.13100
N2142       N  0.07188774  0.75327426  0.56959944    -0.82600
H2143       H  0.14825331  0.76289254  0.62075419     0.17900
N2144       N  0.18452090  0.74940456  0.58441485    -0.81200
H2145       H  0.06702307  0.74768373  0.55007871     0.33600
H2146       H  0.06578787  0.77310700  0.57183188     0.38100
H2147       H  0.18956857  0.75498646  0.60388938     0.33500
H2148       H  0.18997601  0.72936402  0.58233462     0.30200
H2149       H  0.14130805  0.67308705  0.52316458     0.33500
H2150       H  0.14496631  0.68773372  0.55305111     0.30200
H2151       H  0.21612631  0.76673637  0.47381398     0.38100
H2152       H  0.21943182  0.78076291  0.50400472     0.33600
C2153       C  0.11958778  0.99886709  0.70667157    -0.20200
C2154       C  0.10972883  0.98031453  0.72558829     0.36000
C2155       C  0.09882512  0.95605509  0.71666195    -0.26200
C2156       C  0.09760901  0.95001745  0.68937483     0.02500
C2157       C  0.10561215  0.96920688  0.67040575     0.27300
C2158       C  0.11684101  0.99339536  0.67927283    -0.25300
N2159       N  0.11213369  0.98546180  0.75375546    -0.82700
H2160       H  0.09242751  0.94118398  0.73106779     0.13100
C2161       C  0.09046384  0.92248845  0.68149972     0.02400
N2162       N  0.10216723  0.96413601  0.64234408    -0.81200
H2163       H  0.12403545  0.00780231  0.66478046     0.17900
C2164       C  0.06362411  0.91469277  0.68113088    -0.26100
C2165       C  0.05645372  0.88768459  0.67790581     0.36000
C2166       C  0.07665722  0.86821846  0.67499657    -0.20100
C2167       C  0.10345711  0.87644147  0.67397862    -0.25400
C2168       C  0.11059741  0.90328506  0.67766333     0.27300
H2169       H  0.04832350  0.92960910  0.68432253     0.13100
N2170       N  0.02884614  0.87992096  0.67820268    -0.82600
H2171       H  0.11907795  0.86163999  0.67212204     0.17900
N2172       N  0.13824338  0.91081283  0.67955284    -0.81200
H2173       H  0.01660139  0.89659147  0.68084685     0.33600
H2174       H  0.02438494  0.87212804  0.65936569     0.38100
H2175       H  0.15052609  0.89408222  0.67755904     0.33500
H2176       H  0.14273636  0.92330338  0.66345792     0.30200
H2177       H  0.10861603  0.98054037  0.63111135     0.33500
H2178       H  0.11435714  0.94813811  0.63695359     0.30200
H2179       H  0.13244749  0.98558283  0.75844210     0.38100
H2180       H  0.10354917  0.96996428  0.76485558     0.33600
C2181       C  0.89551557  0.62507203  0.76138237    -0.20200
C2182       C  0.90038723  0.64716829  0.77845521     0.36000
C2183       C  0.92199097  0.66440383  0.77304386    -0.26200
C2184       C  0.93882770  0.66015745  0.75102716     0.02500
C2185       C  0.93529174  0.63700654  0.73532997     0.27300
C2186       C  0.91398093  0.61961388  0.74089264    -0.25300
N2187       N  0.88299323  0.65263513  0.80064798    -0.82700
H2188       H  0.92518190  0.68182205  0.78549555     0.13100
C2189       C  0.95849681  0.68107279  0.74302409     0.02400
N2190       N  0.95251136  0.63193012  0.71288778    -0.81200
H2191       H  0.91086623  0.60259760  0.72789883     0.17900
C2192       C  0.98532397  0.67411898  0.73909389    -0.26100
C2193       C  0.00349917  0.69217262  0.72748358     0.36000
C2194       C  0.99469858  0.71788926  0.71988342    -0.20100
C2195       C  0.96839888  0.72549732  0.72570786    -0.25400
C2196       C  0.95011146  0.70728976  0.73686003     0.27300
H2197       H  0.99188098  0.65420075  0.74436443     0.13100
N2198       N  0.03074679  0.68437722  0.72312685    -0.82600
H2199       H  0.96163929  0.74526415  0.72013675     0.17900
N2200       N  0.92277892  0.71498624  0.74083254    -0.81200
H2201       H  0.03388394  0.66478341  0.72960906     0.33600
H2202       H  0.04276918  0.69664316  0.73500116     0.38100
H2203       H  0.91993381  0.73496294  0.73548220     0.33500
H2204       H  0.91105709  0.70357110  0.72786616     0.30200
H2205       H  0.94739207  0.61397061  0.70352802     0.33500
H2206       H  0.94937436  0.64707646  0.69887036     0.30200
H2207       H  0.88493765  0.63688422  0.81421409     0.38100
H2208       H  0.88902041  0.66993241  0.81069400     0.33600
C2209       C  0.17678991  0.81377324  0.87005650    -0.20200
C2210       C  0.15040314  0.82024349  0.87805557     0.36000
C2211       C  0.12916619  0.81652958  0.85991702    -0.26200
C2212       C  0.13377002  0.80617220  0.83431678     0.02500
C2213       C  0.15965967  0.79850942  0.82681135     0.27300
C2214       C  0.18074829  0.80220053  0.84469610    -0.25300
N2215       N  0.14524595  0.83107324  0.90414135    -0.82700
H2216       H  0.10911520  0.82239420  0.86543784     0.13100
C2217       C  0.11250869  0.80615340  0.81391270     0.02400
N2218       N  0.16460682  0.78825894  0.80040299    -0.81200
H2219       H  0.20063311  0.79685359  0.83817656     0.17900
C2220       C  0.11179667  0.82769395  0.79607911    -0.26100
C2221       C  0.09773060  0.82584601  0.77198222     0.36000
C2222       C  0.08374921  0.80215211  0.76593331    -0.20100
C2223       C  0.08236004  0.78153773  0.78486825    -0.25400
C2224       C  0.09704114  0.78314933  0.80878370     0.27300
H2225       H  0.12386033  0.84522886  0.80011019     0.13100
N2226       N  0.09871656  0.84732215  0.75291160    -0.82600
H2227       H  0.07165403  0.76334543  0.78002397     0.17900
N2228       N  0.09734766  0.76112306  0.82719750    -0.81200
H2229       H  0.11015825  0.86319626  0.76022619     0.33600
H2230       H  0.07930875  0.85453138  0.75059250     0.38100
H2231       H  0.08484049  0.74579636  0.82048611     0.33500
H2232       H  0.11664852  0.75329606  0.82743585     0.30200
H2233       H  0.18489492  0.78434191  0.79764210     0.33500
H2234       H  0.15473006  0.76992794  0.79873750     0.30200
H2235       H  0.14969298  0.81619755  0.91809015     0.38100
H2236       H  0.12497449  0.83535593  0.90645861     0.33600
C2237       C  0.86448381  0.01236610  0.28088091    -0.20200
C2238       C  0.86839133  0.01970270  0.30783094     0.36000
C2239       C  0.87994639  0.04453868  0.31400984    -0.26200
C2240       C  0.88758512  0.06237941  0.29373928     0.02500
C2241       C  0.88523783  0.05441981  0.26678648     0.27300
C2242       C  0.87404859  0.02936870  0.26066847    -0.25300
N2243       N  0.86044975  0.00211762  0.32898950    -0.82700
H2244       H  0.88211224  0.05033202  0.33475482     0.13100
C2245       C  0.89544995  0.09021031  0.30073245     0.02400
N2246       N  0.89301669  0.07233051  0.24569446    -0.81200
H2247       H  0.87122966  0.02388573  0.23992606     0.17900
C2248       C  0.92027250  0.10029760  0.29253765    -0.26100
C2249       C  0.92697593  0.12743323  0.29609160     0.36000
C2250       C  0.90835075  0.14497410  0.30822621    -0.20100
C2251       C  0.88405877  0.13428755  0.31764215    -0.25400
C2252       C  0.87729823  0.10732027  0.31372019     0.27300
H2253       H  0.93423182  0.08700915  0.28273660     0.13100
N2254       N  0.95233930  0.13719063  0.28682067    -0.82600
H2255       H  0.86954942  0.14728531  0.32699154     0.17900
N2256       N  0.85155090  0.09749979  0.32186828    -0.81200
H2257       H  0.96322391  0.12191630  0.27767441     0.33600
H2258       H  0.96325579  0.14307806  0.30360092     0.38100
H2259       H  0.84052650  0.11257150  0.33117735     0.33500
H2260       H  0.84107620  0.09219486  0.30461512     0.30200
H2261       H  0.89011179  0.06342936  0.22702758     0.33500
H2262       H  0.88035386  0.08887585  0.24646202     0.30200
H2263       H  0.84673044  0.01219743  0.34106305     0.38100
H2264       H  0.87726443  0.99791433  0.34055215     0.33600
C2265       C  0.80364825  0.87516588  0.18827837    -0.20200
C2266       C  0.82229873  0.85901611  0.17475587     0.36000
C2267       C  0.81361298  0.84192333  0.15446007    -0.26200
C2268       C  0.78658698  0.84064763  0.14717590     0.02500
C2269       C  0.76809497  0.85772786  0.15984585     0.27300
C2270       C  0.77678272  0.87458887  0.18056032    -0.25300
N2271       N  0.84985390  0.85845951  0.18226926    -0.82700
H2272       H  0.82788314  0.82854838  0.14523848     0.13100
C2273       C  0.77773268  0.81877922  0.12914757     0.02400
N2274       N  0.74055497  0.85746649  0.15194512    -0.81200
H2275       H  0.76253109  0.88710390  0.19096510     0.17900
C2276       C  0.75903899  0.80025573  0.13880515    -0.26100
C2277       C  0.75423035  0.77627777  0.12526053     0.36000
C2278       C  0.76840770  0.77044799  0.10161034    -0.20100
C2279       C  0.78531756  0.78998908  0.09061720    -0.25400
C2280       C  0.79014973  0.81416541  0.10422238     0.27300
H2281       H  0.74926897  0.80362444  0.15783636     0.13100
N2282       N  0.73545421  0.75749132  0.13601647    -0.82600
H2283       H  0.79604579  0.78571852  0.07230603     0.17900
N2284       N  0.80834546  0.83359930  0.09341533    -0.81200
H2285       H  0.71692093  0.76691410  0.13744209     0.33600
H2286       H  0.74156286  0.75241929  0.15531548     0.38100
H2287       H  0.81595798  0.82711531  0.07507477     0.33500
H2288       H  0.79746826  0.85096270  0.08956922     0.30200
H2289       H  0.72956880  0.87108796  0.16332270     0.33500
H2290       H  0.73968709  0.86405694  0.13214931     0.30200
H2291       H  0.85782775  0.87760879  0.17981150     0.38100
H2292       H  0.85110496  0.85327903  0.20246389     0.33600
C2293       C  0.89779455  0.88393278  0.25431444    -0.20200
C2294       C  0.92008125  0.89327973  0.23951675     0.36000
C2295       C  0.94111128  0.87563355  0.23378392    -0.26200
C2296       C  0.94047187  0.84905767  0.24259170     0.02500
C2297       C  0.91927988  0.84037892  0.25897049     0.27300
C2298       C  0.89844628  0.85786199  0.26488084    -0.25300
N2299       N  0.92075830  0.92003548  0.22910181    -0.82700
H2300       H  0.95754115  0.88222431  0.22130021     0.13100
C2301       C  0.95990094  0.82985628  0.23138453     0.02400
N2302       N  0.91748572  0.81340939  0.26839181    -0.81200
H2303       H  0.88185282  0.85033324  0.27658428     0.17900
C2304       C  0.97872846  0.81748390  0.24797145    -0.26100
C2305       C  0.99679385  0.79861652  0.23760469     0.36000
C2306       C  0.99604248  0.79240061  0.21013099    -0.20100
C2307       C  0.97739130  0.80510019  0.19359790    -0.25400
C2308       C  0.95908893  0.82347197  0.20398452     0.27300
H2309       H  0.97939032  0.82267882  0.26896674     0.13100
N2310       N  0.01612691  0.78617502  0.25468002    -0.82600
H2311       H  0.97674677  0.80021385  0.17251029     0.17900
N2312       N  0.93945727  0.83551120  0.18690152    -0.81200
H2313       H  0.01393774  0.79289566  0.27433751     0.33600
H2314       H  0.03502686  0.79236375  0.24830410     0.38100
H2315       H  0.94165952  0.82880112  0.16724123     0.33500
H2316       H  0.92068194  0.82902607  0.19335715     0.30200
H2317       H  0.93401585  0.80948209  0.28041309     0.33500
H2318       H  0.91792496  0.80054317  0.25194502     0.30200
H2319       H  0.92220190  0.93303101  0.24538874     0.38100
H2320       H  0.93791025  0.92312825  0.21758676     0.33600
C2321       C  0.73832853  0.09309522  0.10698842    -0.20200
C2322       C  0.76081796  0.07652920  0.10266638     0.36000
C2323       C  0.76529818  0.05468538  0.11977624    -0.26200
C2324       C  0.74826407  0.04945516  0.14140722     0.02500
C2325       C  0.72495794  0.06470436  0.14464773     0.27300
C2326       C  0.72013047  0.08620794  0.12733779    -0.25300
N2327       N  0.78002740  0.08286545  0.08225121    -0.82700
H2328       H  0.78325038  0.04289395  0.11745975     0.13100
C2329       C  0.75696061  0.03054985  0.16244690     0.02400
N2330       N  0.70688222  0.05891119  0.16622537    -0.81200
H2331       H  0.70269650  0.09851829  0.13066393     0.17900
C2332       C  0.76190723  0.04053113  0.18815488    -0.26100
C2333       C  0.77243134  0.02418804  0.20831076     0.36000
C2334       C  0.77859571  0.99728397  0.20241397    -0.20100
C2335       C  0.77303957  0.98717005  0.17679074    -0.25400
C2336       C  0.76206432  0.00349331  0.15681314     0.27300
H2337       H  0.75813957  0.06143540  0.19229536     0.13100
N2338       N  0.77814836  0.03526665  0.23418922    -0.82600
H2339       H  0.77745675  0.96647073  0.17228823     0.17900
N2340       N  0.75629341  0.99283623  0.13079626    -0.81200
H2341       H  0.77460114  0.05583872  0.23436046     0.33600
H2342       H  0.76454417  0.02696480  0.24770204     0.38100
H2343       H  0.76126985  0.97258595  0.12988124     0.33500
H2344       H  0.73567024  0.99398419  0.12800423     0.30200
H2345       H  0.69082779  0.07219409  0.16611219     0.33500
H2346       H  0.69895959  0.03986819  0.16288192     0.30200
H2347       H  0.78976674  0.10043669  0.08799806     0.38100
H2348       H  0.79472768  0.06812443  0.08117654     0.33600
C2349       C  0.72656449  0.90643020  0.28020990    -0.20200
C2350       C  0.70989752  0.91358482  0.30173234     0.36000
C2351       C  0.68681733  0.89829405  0.30689499    -0.26200
C2352       C  0.68013052  0.87641316  0.29063316     0.02500
C2353       C  0.69574767  0.87068625  0.26791127     0.27300
C2354       C  0.71887005  0.88574069  0.26298123    -0.25300
N2355       N  0.71750097  0.93498023  0.31929941    -0.82700
H2356       H  0.67469560  0.90260454  0.32430410     0.13100
C2357       C  0.65907175  0.85743106  0.29928203     0.02400
N2358       N  0.68881579  0.84871311  0.25074918    -0.81200
H2359       H  0.73183458  0.88032166  0.24649683     0.17900
C2360       C  0.63540313  0.85517093  0.28455362    -0.26100
C2361       C  0.61654979  0.83508677  0.29045124     0.36000
C2362       C  0.62182713  0.81673850  0.31119114    -0.20100
C2363       C  0.64530139  0.81934292  0.32616551    -0.25400
C2364       C  0.66394328  0.83957429  0.32049862     0.27300
H2365       H  0.63198409  0.86872524  0.26804471     0.13100
N2366       N  0.59286916  0.83234125  0.27454480    -0.82600
H2367       H  0.64927846  0.80521835  0.34206875     0.17900
N2368       N  0.68817610  0.84162568  0.33569102    -0.81200
H2369       H  0.59266691  0.84660379  0.25928970     0.33600
H2370       H  0.57653574  0.83657944  0.28681918     0.38100
H2371       H  0.68861206  0.82713834  0.35072659     0.33500
H2372       H  0.70407925  0.83742012  0.32283329     0.30200
H2373       H  0.70224897  0.84732722  0.23480705     0.33500
H2374       H  0.69078885  0.83110907  0.26179874     0.30200
H2375       H  0.71706200  0.95267245  0.30821866     0.38100
H2376       H  0.70347111  0.93716683  0.33461979     0.33600
C2377       C  0.85361889  0.81966742  0.57527203    -0.20200
C2378       C  0.87069734  0.80357821  0.55937568     0.36000
C2379       C  0.89755514  0.80051587  0.56677480    -0.26200
C2380       C  0.90787172  0.81322195  0.58947413     0.02500
C2381       C  0.89171340  0.83145053  0.60362023     0.27300
C2382       C  0.86487524  0.83462011  0.59624376    -0.25300
N2383       N  0.86066122  0.78958326  0.53639968    -0.82700
H2384       H  0.91030009  0.78722135  0.55543058     0.13100
C2385       C  0.93443413  0.80511977  0.59989733     0.02400
N2386       N  0.90217774  0.84564212  0.62628972    -0.81200
H2387       H  0.85233493  0.84764416  0.60809574     0.17900
C2388       C  0.95401972  0.82454063  0.60493803    -0.26100
C2389       C  0.97776693  0.81793244  0.61828497     0.36000
C2390       C  0.98216672  0.79125424  0.62634856    -0.20100
C2391       C  0.96347075  0.77153732  0.61955687    -0.25400
C2392       C  0.93944126  0.77822660  0.60686383     0.27300
H2393       H  0.95036545  0.84506465  0.59916706     0.13100
N2394       N  0.99722499  0.83824597  0.62406030    -0.82600
H2395       H  0.96680402  0.75108303  0.62577199     0.17900
N2396       N  0.91955534  0.75800826  0.60220822    -0.81200
H2397       H  0.99087102  0.85682270  0.61700139     0.33600
H2398       H  0.01460088  0.83351377  0.61351509     0.38100
H2399       H  0.92638091  0.73929141  0.60839560     0.33500
H2400       H  0.90303408  0.76250600  0.61415249     0.30200
H2401       H  0.88782766  0.85849643  0.63428209     0.33500
H2402       H  0.90646346  0.83160077  0.64112108     0.30200
H2403       H  0.85521930  0.80394069  0.52226899     0.38100
H2404       H  0.87562025  0.77803940  0.52755713     0.33600
C2405       C  0.81122986  0.91525070  0.35452893    -0.20200
C2406       C  0.83275058  0.90371390  0.36840889     0.36000
C2407       C  0.82896112  0.89530896  0.39495856    -0.26200
C2408       C  0.80390610  0.89760551  0.40739344     0.02500
C2409       C  0.78263013  0.90967231  0.39355602     0.27300
C2410       C  0.78674769  0.91895383  0.36754563    -0.25300
N2411       N  0.85809605  0.90027467  0.35541183    -0.82700
H2412       H  0.84530200  0.88620671  0.40573803     0.13100
C2413       C  0.79922072  0.88542703  0.43395466     0.02400
N2414       N  0.75653847  0.91121705  0.40546042    -0.81200
H2415       H  0.77011761  0.92746087  0.35669850     0.17900
C2416       C  0.78774409  0.90087607  0.45435576    -0.26100
C2417       C  0.77881774  0.88909172  0.47821784     0.36000
C2418       C  0.78213792  0.86134947  0.48195357    -0.20100
C2419       C  0.79516679  0.84628097  0.46215097    -0.25400
C2420       C  0.80333975  0.85789553  0.43803979     0.27300
H2421       H  0.78492146  0.92209609  0.45120467     0.13100
N2422       N  0.76621002  0.90512918  0.49841715    -0.82600
H2423       H  0.79783098  0.82498618  0.46489365     0.17900
N2424       N  0.81472945  0.84161053  0.41728572    -0.81200
H2425       H  0.76492364  0.92503896  0.49225283     0.33600
H2426       H  0.77849660  0.90492101  0.51526403     0.38100
H2427       H  0.81656720  0.82179802  0.42361421     0.33500
H2428       H  0.80139812  0.84147282  0.40125303     0.30200
H2429       H  0.74314886  0.92072123  0.39262742     0.33500
H2430       H  0.74952528  0.89168775  0.40797413     0.30200
H2431       H  0.86559271  0.91928367  0.35101715     0.38100
H2432       H  0.87173282  0.89130792  0.36836968     0.33600
C2433       C  0.68725533  0.81414632  0.62314132    -0.20200
C2434       C  0.68639553  0.79013160  0.63800804     0.36000
C2435       C  0.66567105  0.78601315  0.65651024    -0.26200
C2436       C  0.64574727  0.80525514  0.66025914     0.02500
C2437       C  0.64551912  0.82829371  0.64406106     0.27300
C2438       C  0.66624083  0.83248022  0.62557341    -0.25300
N2439       N  0.70679007  0.77025852  0.63460044    -0.82700
H2440       H  0.66573061  0.76830473  0.66895891     0.13100
C2441       C  0.62777665  0.80289381  0.68370594     0.02400
N2442       N  0.62469685  0.84773469  0.64717126    -0.81200
H2443       H  0.66662864  0.85072443  0.61393258     0.17900
C2444       C  0.62982921  0.82226932  0.70378683    -0.26100
C2445       C  0.61589589  0.81955504  0.72783458     0.36000
C2446       C  0.59941102  0.79711292  0.73207134    -0.20100
C2447       C  0.59624202  0.77826245  0.71154238    -0.25400
C2448       C  0.61050903  0.78085467  0.68734563     0.27300
H2449       H  0.64309281  0.83920371  0.70115351     0.13100
N2450       N  0.61863980  0.83961812  0.74808710    -0.82600
H2451       H  0.58353696  0.76102764  0.71481343     0.17900
N2452       N  0.60797528  0.76106314  0.66671214    -0.81200
H2453       H  0.63881281  0.84108947  0.75313235     0.33600
H2454       H  0.61271560  0.85791971  0.74000591     0.38100
H2455       H  0.59461740  0.74608741  0.67256181     0.33500
H2456       H  0.59963338  0.77039904  0.65003283     0.30200
H2457       H  0.62752578  0.86366829  0.63395595     0.33500
H2458       H  0.60674105  0.83855000  0.64181054     0.30200
H2459       H  0.70548120  0.76311185  0.61501645     0.38100
H2460       H  0.70331564  0.75391641  0.64715105     0.33600
C2461       C  0.75056301  0.90858021  0.60655971    -0.20200
C2462       C  0.76778040  0.91731932  0.62707071     0.36000
C2463       C  0.76064053  0.93960489  0.64260410    -0.26200
C2464       C  0.73655976  0.95314021  0.63822712     0.02500
C2465       C  0.72008762  0.94539250  0.61677937     0.27300
C2466       C  0.72747780  0.92345125  0.60091309    -0.25300
N2467       N  0.79207658  0.90315906  0.63246365    -0.82700
H2468       H  0.77340726  0.94588794  0.65888695     0.13100
C2469       C  0.72766790  0.97361992  0.65776164     0.02400
N2470       N  0.69527701  0.95893570  0.61206785    -0.81200
H2471       H  0.71409977  0.91677826  0.58529152     0.17900
C2472       C  0.72263960  0.99986072  0.64931162    -0.26100
C2473       C  0.71295847  0.01921303  0.66728055     0.36000
C2474       C  0.70836778  0.01209926  0.69423546    -0.20100
C2475       C  0.71401645  0.98601373  0.70271082    -0.25400
C2476       C  0.72320690  0.96661193  0.68470223     0.27300
H2477       H  0.72613822  0.00515715  0.62860982     0.13100
N2478       N  0.70785297  0.04599494  0.65830808    -0.82600
H2479       H  0.71012619  0.98041329  0.72326722     0.17900
N2480       N  0.72727134  0.93957089  0.69346668    -0.81200
H2481       H  0.71216053  0.04788081  0.63794845     0.33600
H2482       H  0.72101602  0.05869521  0.66838017     0.38100
H2483       H  0.72311218  0.93770754  0.71385776     0.33500
H2484       H  0.71347940  0.92749228  0.68347316     0.30200
H2485       H  0.68550334  0.95077644  0.59552733     0.33500
H2486       H  0.68293594  0.95549837  0.62858260     0.30200
H2487       H  0.80429232  0.90499967  0.61560944     0.38100
H2488       H  0.80235804  0.91203933  0.64831114     0.33600
C2489       C  0.78206471  0.73608089  0.60035611    -0.20200
C2490       C  0.76394924  0.71459546  0.59795549     0.36000
C2491       C  0.76855557  0.69107324  0.61259422    -0.26200
C2492       C  0.79107351  0.68871523  0.62897612     0.02500
C2493       C  0.80969879  0.70973260  0.63043512     0.27300
C2494       C  0.80501227  0.73320510  0.61605814    -0.25300
N2495       N  0.74029382  0.71729019  0.58203260    -0.82700
H2496       H  0.75419136  0.67488017  0.61196025     0.13100
C2497       C  0.79327409  0.66608304  0.64761592     0.02400
N2498       N  0.83277643  0.70747268  0.64730626    -0.81200
H2499       H  0.81901057  0.74966770  0.61763924     0.17900
C2500       C  0.81274980  0.64647479  0.64340934    -0.26100
C2501       C  0.81861210  0.62759023  0.66337449     0.36000
C2502       C  0.80493118  0.62892009  0.68805250    -0.20100
C2503       C  0.78448218  0.64776384  0.69145410    -0.25400
C2504       C  0.77857784  0.66640976  0.67155377     0.27300
H2505       H  0.82406376  0.64662167  0.62494356     0.13100
N2506       N  0.83942177  0.60832934  0.65926141    -0.82600
H2507       H  0.77375663  0.64866515  0.71023026     0.17900
N2508       N  0.75855033  0.68646879  0.67599784    -0.81200
H2509       H  0.84853699  0.61124583  0.64068054     0.33600
H2510       H  0.83043921  0.58948476  0.65843880     0.38100
H2511       H  0.74938612  0.68375303  0.69458560     0.33500
H2512       H  0.76813762  0.70502445  0.67675565     0.30200
H2513       H  0.84463411  0.72462760  0.64589872     0.33500
H2514       H  0.82613833  0.70644174  0.66709454     0.30200
H2515       H  0.74628176  0.71819297  0.56204562     0.38100
H2516       H  0.72832687  0.70024379  0.58377323     0.33600
C2517       C  0.60776858  0.74341711  0.39960487    -0.20200
C2518       C  0.59654275  0.75398153  0.42322063     0.36000
C2519       C  0.61284080  0.75758737  0.44581113    -0.26200
C2520       C  0.64019355  0.75143639  0.44501937     0.02500
C2521       C  0.65081581  0.73888949  0.42214725     0.27300
C2522       C  0.63437825  0.73459167  0.39993994    -0.25300
N2523       N  0.56895963  0.76168172  0.42396124    -0.82700
H2524       H  0.60456030  0.76661325  0.46365903     0.13100
C2525       C  0.65816431  0.76161871  0.46636106     0.02400
N2526       N  0.67864103  0.73207161  0.42085924    -0.81200
H2527       H  0.64312971  0.72619660  0.38201499     0.17900
C2528       C  0.67645993  0.74444556  0.47889510    -0.26100
C2529       C  0.69604194  0.75444947  0.49644566     0.36000
C2530       C  0.69678352  0.78207151  0.50206781    -0.20100
C2531       C  0.67774327  0.79892112  0.49036765    -0.25400
C2532       C  0.65886579  0.78917160  0.47226002     0.27300
H2533       H  0.67583711  0.72327511  0.47444657     0.13100
N2534       N  0.71509396  0.73674874  0.50843342    -0.82600
H2535       H  0.67836711  0.82018548  0.49437931     0.17900
N2536       N  0.64112514  0.80738337  0.45898707    -0.81200
H2537       H  0.71197422  0.71713103  0.50196543     0.33600
H2538       H  0.71165482  0.73685497  0.52903635     0.38100
H2539       H  0.64408585  0.82692990  0.46573767     0.33500
H2540       H  0.64600752  0.80732282  0.43866904     0.30200
H2541       H  0.68317551  0.72271897  0.40274133     0.33500
H2542       H  0.68958480  0.74987243  0.42124927     0.30200
H2543       H  0.55753032  0.74439157  0.42130390     0.38100
H2544       H  0.56395009  0.76931768  0.44275012     0.33600
loop_ 
_geom_bond_atom_site_label_1 
_geom_bond_atom_site_label_2 
_geom_bond_distance 
_geom_bond_site_symmetry_2 
_ccdc_geom_bond_type 
Fe1          O17   2.059       .  S
Fe1           O7   2.068       .  S
Fe1          O14   2.070       .  S
Fe1           O6   2.063       .  S
Fe1          O12   1.955       .  S
Fe2           O5   2.039       .  S
Fe2           O9   2.088       .  S
Fe2          O13   2.051       .  S
Fe2          O18   2.081       .  S
Fe2          O12   1.959       .  S
Fe3          O21   2.078       .  S
Fe3           O8   2.044       .  S
Fe3          O15   2.053       .  S
Fe3           O4   2.087       .  S
Fe3          O12   1.962       .  S
O4           C11   1.275       .  A
O5           C19   1.263       .  A
O6           C11   1.274       .  A
O7           C10   1.267       .  A
O8           C20   1.270       .  A
O9           C22   1.278       .  A
C10          O15   1.263       .  A
C10        C2489   1.471       .  S
C11        C2377   1.495       .  S
O13          C16   1.262       .  A
O14          C16   1.266       .  A
C16        C2461   1.484       .  S
O17          C22   1.274       .  A
O18          C20   1.276       .  A
C19          O21   1.268       .  A
C19        C2530   1.482       .  S
C20        C2418   1.479       .  S
C22        C2433   1.482       .  S
Fe23         O39   2.064       .  S
Fe23         O29   2.050       .  S
Fe23         O36   2.056       .  S
Fe23         O28   2.067       .  S
Fe23         O34   1.945       .  S
Fe24         O27   2.076       .  S
Fe24         O31   2.069       .  S
Fe24         O35   2.071       .  S
Fe24         O40   2.061       .  S
Fe24         O34   1.954       .  S
Fe25         O43   2.051       .  S
Fe25         O30   2.087       .  S
Fe25         O37   2.087       .  S
Fe25         O26   2.059       .  S
Fe25         O34   1.952       .  S
O26          C33   1.267       .  A
O27          C41   1.271       .  A
O28          C33   1.269       .  A
O29          C32   1.267       .  A
O30          C42   1.275       .  A
O31          C44   1.269       .  A
C32          O37   1.273       .  A
C32        C2265   1.470       .  S
C33        C2293   1.489       .  S
O35          C38   1.272       .  A
O36          C38   1.269       .  A
C38        C2405   1.471       .  S
O39          C44   1.268       .  A
O40          C42   1.270       .  A
C41          O43   1.267       .  A
C41        C2334   1.481       .  S
C42        C2237   1.486   1_565  S
C44        C2349   1.472       .  S
Fe45         O61   2.068       .  S
Fe45         O51   2.050       .  S
Fe45         O58   2.052       .  S
Fe45         O50   2.065       .  S
Fe45         O56   1.943       .  S
Fe46         O49   2.082       .  S
Fe46         O53   2.068       .  S
Fe46         O57   2.089       .  S
Fe46         O62   2.055       .  S
Fe46         O56   1.952       .  S
Fe47         O65   2.057       .  S
Fe47         O52   2.090       .  S
Fe47         O59   2.085       .  S
Fe47         O48   2.068       .  S
Fe47         O56   1.954       .  S
O48          C55   1.269       .  A
O49          C63   1.272       .  A
O50          C55   1.269       .  A
O51          C54   1.270       .  A
O52          C64   1.276       .  A
O53          C66   1.267       .  A
C54          O59   1.275       .  A
C54        C2110   1.477       .  S
C55        C2138   1.491       .  S
O57          C60   1.275       .  A
O58          C60   1.270       .  A
C60        C2166   1.483       .  S
O61          C66   1.268       .  A
O62          C64   1.270       .  A
C63          O65   1.267       .  A
C63        C2194   1.485   1_455  S
C64        C2390   1.481   1_455  S
C66        C2222   1.471       .  S
Fe67         O83   2.066       .  S
Fe67         O73   2.049       .  S
Fe67         O80   2.060       .  S
Fe67         O72   2.069       .  S
Fe67         O78   1.945       .  S
Fe68         O71   2.072       .  S
Fe68         O75   2.062       .  S
Fe68         O79   2.078       .  S
Fe68         O84   2.053       .  S
Fe68         O78   1.959       .  S
Fe69         O87   2.066       .  S
Fe69         O74   2.080       .  S
Fe69         O81   2.084       .  S
Fe69         O70   2.072       .  S
Fe69         O78   1.959       .  S
O70          C77   1.271       .  A
O71          C85   1.271       .  A
O72          C77   1.268       .  A
O73          C76   1.268       .  A
O74          C86   1.273       .  A
O75          C88   1.267       .  A
C76          O81   1.272       .  A
C76        C1929   1.469       .  S
C77        C1970   1.496       .  S
O79          C82   1.272       .  A
O80          C82   1.270       .  A
C82        C2013   1.476       .  S
O83          C88   1.269       .  A
O84          C86   1.270       .  A
C85          O87   1.269       .  A
C85        C1998   1.481       .  S
C86        C2054   1.486       .  S
C88        C2082   1.468       .  S
Fe89        O105   2.047       .  S
Fe89         O95   2.054       .  S
Fe89        O102   2.065       .  S
Fe89         O94   2.056       .  S
Fe89        O100   1.967       .  S
Fe90         O93   2.050       .  S
Fe90         O97   2.077       .  S
Fe90        O101   2.067       .  S
Fe90        O106   2.069       .  S
Fe90        O100   1.979       .  S
Fe91        O109   2.080       .  S
Fe91         O96   2.060       .  S
Fe91        O103   2.069       .  S
Fe91         O92   2.076       .  S
Fe91        O100   1.980       .  S
O92          C99   1.273       .  A
O93         C107   1.268       .  A
O94          C99   1.269       .  A
O95          C98   1.265       .  A
O96         C108   1.268       .  A
O97         C110   1.270       .  A
C98         O103   1.266       .  A
C98        C1830   1.469       .  S
C99        C2041   1.493       .  S
O101        C104   1.269       .  A
O102        C104   1.268       .  A
C104       C1886   1.495       .  S
O105        C110   1.267       .  A
O106        C108   1.270       .  A
C107        O109   1.272       .  A
C107       C1901   1.486       .  S
C108       C2153   1.479   1_545  S
C110       C1858   1.483       .  S
Fe111       O127   2.044       .  S
Fe111       O117   2.060       .  S
Fe111       O124   2.058       .  S
Fe111       O116   2.057       .  S
Fe111       O122   1.964       .  S
Fe112       O115   2.065       .  S
Fe112       O119   2.077       .  S
Fe112       O123   2.072       .  S
Fe112       O128   2.082       .  S
Fe112       O122   1.972       .  S
Fe113       O131   2.076       .  S
Fe113       O118   2.057       .  S
Fe113       O125   2.063       .  S
Fe113       O114   2.087       .  S
Fe113       O122   1.974       .  S
O114        C121   1.272       .  A
O115        C129   1.266       .  A
O116        C121   1.268       .  A
O117        C120   1.269       .  A
O118        C130   1.272       .  A
O119        C132   1.271       .  A
C120        O125   1.268       .  A
C120       C1802   1.469       .  S
C121       C2250   1.498       .  S
O123        C126   1.270       .  A
O124        C126   1.268       .  A
C126       C1733   1.495       .  S
O127        C132   1.267       .  A
O128        C130   1.275       .  A
C129        O131   1.270       .  A
C129       C1761   1.487       .  S
C130       C2026   1.483   1_655  S
C132       C1718   1.469       .  S
Fe133       O149   2.066       .  S
Fe133       O139   2.042       .  S
Fe133       O146   2.047       .  S
Fe133       O138   2.061       .  S
Fe133       O144   1.939       .  S
Fe134       O137   2.085       .  S
Fe134       O141   2.066       .  S
Fe134       O145   2.099       .  S
Fe134       O150   2.054       .  S
Fe134       O144   1.954       .  S
Fe135       O153   2.054       .  S
Fe135       O140   2.096       .  S
Fe135       O147   2.093       .  S
Fe135       O136   2.069       .  S
Fe135       O144   1.954       .  S
O136        C143   1.269       .  A
O137        C151   1.271       .  A
O138        C143   1.268       .  A
O139        C142   1.268       .  A
O140        C152   1.278       .  A
O141        C154   1.268       .  A
C142        O147   1.276       .  A
C142       C1649   1.488       .  S
C143       C1677   1.495       .  S
O145        C148   1.276       .  A
O146        C148   1.266       .  A
C148       C1593   1.495       .  S
O149        C154   1.269       .  A
O150        C152   1.272       .  A
C151        O153   1.266       .  A
C151       C1746   1.483       .  S
C152       C1578   1.485       .  S
C154       C1621   1.467       .  S
Fe155       O171   2.059       .  S
Fe155       O161   2.055       .  S
Fe155       O168   2.063       .  S
Fe155       O160   2.068       .  S
Fe155       O166   1.956       .  S
Fe156       O159   2.077       .  S
Fe156       O163   2.081       .  S
Fe156       O167   2.077       .  S
Fe156       O172   2.081       .  S
Fe156       O166   1.966       .  S
Fe157       O175   2.070       .  S
Fe157       O162   2.071       .  S
Fe157       O169   2.073       .  S
Fe157       O158   2.072       .  S
Fe157       O166   1.965       .  S
O158        C165   1.272       .  A
O159        C173   1.270       .  A
O160        C165   1.271       .  A
O161        C164   1.268       .  A
O162        C174   1.274       .  A
O163        C176   1.274       .  A
C164        O169   1.268       .  A
C164       C1705   1.484       .  S
C165       C1565   1.491       .  S
O167        C170   1.270       .  A
O168        C170   1.268       .  A
C170       C1509   1.488       .  S
O171        C176   1.272       .  A
O172        C174   1.274       .  A
C173        O175   1.268       .  A
C173       C1537   1.484       .  S
C174       C1453   1.487       .  S
C176       C1494   1.485       .  S
Fe177       O193   2.044       .  S
Fe177       O183   2.077       .  S
Fe177       O190   2.071       .  S
Fe177       O182   2.057       .  S
Fe177       O188   1.958       .  S
Fe178       O181   2.069       .  S
Fe178       O185   2.087       .  S
Fe178       O189   2.071       .  S
Fe178       O194   2.086       .  S
Fe178       O188   1.963       .  S
Fe179       O197   2.061       .  S
Fe179       O184   2.065       .  S
Fe179       O191   2.060       .  S
Fe179       O180   2.078       .  S
Fe179       O188   1.962       .  S
O180        C187   1.272       .  A
O181        C195   1.267       .  A
O182        C187   1.267       .  A
O183        C186   1.272       .  A
O184        C196   1.274       .  A
O185        C198   1.274       .  A
C186        O191   1.268       .  A
C186       C1397   1.478       .  S
C187       C1425   1.483       .  S
O189        C192   1.269       .  A
O190        C192   1.270       .  A
C192       C1341   1.493       .  S
O193        C198   1.270       .  A
O194        C196   1.277       .  A
C195        O197   1.265       .  A
C195       C1369   1.474       .  S
C196       C1313   1.485       .  S
C198       C2097   1.491       .  S
Fe199       O215   2.053       .  S
Fe199       O205   2.070       .  S
Fe199       O212   2.068       .  S
Fe199       O204   2.053       .  S
Fe199       O210   1.947       .  S
Fe200       O203   2.051       .  S
Fe200       O207   2.088       .  S
Fe200       O211   2.064       .  S
Fe200       O216   2.095       .  S
Fe200       O210   1.956       .  S
Fe201       O219   2.093       .  S
Fe201       O206   2.058       .  S
Fe201       O213   2.067       .  S
Fe201       O202   2.096       .  S
Fe201       O210   1.957       .  S
O202        C209   1.275       .  A
O203        C217   1.264       .  A
O204        C209   1.267       .  A
O205        C208   1.271       .  A
O206        C218   1.272       .  A
O207        C220   1.275       .  A
C208        O213   1.270       .  A
C208       C1298   1.471       .  S
C209       C1326   1.496       .  S
O211        C214   1.268       .  A
O212        C214   1.269       .  A
C214       C1985   1.485       .  S
O215        C220   1.269       .  A
O216        C218   1.277       .  A
C217        O219   1.272       .  A
C217       C1270   1.484       .  S
C218       C1606   1.476       .  S
C220       C1817   1.494       .  S
Fe221       O237   2.047       .  S
Fe221       O227   2.078       .  S
Fe221       O234   2.074       .  S
Fe221       O226   2.043       .  S
Fe221       O232   1.967       .  S
Fe222       O225   2.058       .  S
Fe222       O229   2.076       .  S
Fe222       O233   2.058       .  S
Fe222       O238   2.069       .  S
Fe222       O232   1.974       .  S
Fe223       O241   2.073       .  S
Fe223       O228   2.071       .  S
Fe223       O235   2.067       .  S
Fe223       O224   2.089       .  S
Fe223       O232   1.975       .  S
O224        C231   1.273       .  A
O225        C239   1.265       .  A
O226        C231   1.266       .  A
O227        C230   1.270       .  A
O228        C240   1.273       .  A
O229        C242   1.273       .  A
C230        O235   1.268       .  A
C230       C2362   1.479       .  S
C231       C2517   1.485       .  S
O233        C236   1.265       .  A
O234        C236   1.269       .  A
C236       C1466   1.486       .  S
O237        C242   1.268       .  A
O238        C240   1.273       .  A
C239        O241   1.268       .  A
C239       C1229   1.480       .  S
C240       C1186   1.480       .  S
C242       C1214   1.477       .  S
Fe243       O259   2.069       .  S
Fe243       O249   2.052       .  S
Fe243       O256   2.061       .  S
Fe243       O248   2.065       .  S
Fe243       O254   1.961       .  S
Fe244       O247   2.053       .  S
Fe244       O251   2.072       .  S
Fe244       O255   2.071       .  S
Fe244       O260   2.075       .  S
Fe244       O254   1.961       .  S
Fe245       O263   2.075       .  S
Fe245       O250   2.066       .  S
Fe245       O257   2.073       .  S
Fe245       O246   2.072       .  S
Fe245       O254   1.966       .  S
O246        C253   1.268       .  A
O247        C261   1.266       .  A
O248        C253   1.269       .  A
O249        C252   1.270       .  A
O250        C262   1.273       .  A
O251        C264   1.269       .  A
C252        O257   1.272       .  A
C252       C1158   1.473       .  S
C253       C1173   1.498       .  S
O255        C258   1.269       .  A
O256        C258   1.269       .  A
C258       C1117   1.493       .  S
O259        C264   1.269       .  A
O260        C262   1.275       .  A
C261        O263   1.269       .  A
C261       C2125   1.494       .  S
C262       C1354   1.482       .  S
C264       C1102   1.475       .  S
Fe265       O281   2.058       .  S
Fe265       O271   2.048       .  S
Fe265       O278   2.059       .  S
Fe265       O270   2.062       .  S
Fe265       O276   1.956       .  S
Fe266       O269   2.065       .  S
Fe266       O273   2.069       .  S
Fe266       O277   2.071       .  S
Fe266       O282   2.068       .  S
Fe266       O276   1.966       .  S
Fe267       O285   2.077       .  S
Fe267       O272   2.069       .  S
Fe267       O279   2.077       .  S
Fe267       O268   2.077       .  S
Fe267       O276   1.970       .  S
O268        C275   1.273       .  A
O269        C283   1.269       .  A
O270        C275   1.272       .  A
O271        C274   1.265       .  A
O272        C284   1.272       .  A
O273        C286   1.271       .  A
C274        O279   1.268       .  A
C274       C1061   1.475       .  S
C275       C1018   1.495       .  S
O277        C280   1.269       .  A
O278        C280   1.265       .  A
C280       C2181   1.495       .  S
O281        C286   1.271       .  A
O282        C284   1.272       .  A
C283        O285   1.271       .  A
C283       C1690   1.489       .  S
C284       C1046   1.479       .  S
C286       C2502   1.479       .  S
Fe287       O303   2.048       .  S
Fe287       O293   2.086       .  S
Fe287       O300   2.067       .  S
Fe287       O292   2.054       .  S
Fe287       O298   1.952       .  S
Fe288       O291   2.069       .  S
Fe288       O295   2.075       .  S
Fe288       O299   2.063       .  S
Fe288       O304   2.088       .  S
Fe288       O298   1.955       .  S
Fe289       O307   2.061       .  S
Fe289       O294   2.065       .  S
Fe289       O301   2.067       .  S
Fe289       O290   2.072       .  S
Fe289       O298   1.958       .  S
O290        C297   1.266       .  A
O291        C305   1.263       .  A
O292        C297   1.261       .  A
O293        C296   1.278       .  A
O294        C306   1.277       .  A
O295        C308   1.271       .  A
C296        O301   1.275       .  A
C296        C962   1.480       .  S
C297        C977   1.485       .  S
O299        C302   1.269       .  A
O300        C302   1.270       .  A
C302       C1033   1.479       .  S
O303        C308   1.268       .  A
O304        C306   1.280       .  A
C305        O307   1.263       .  A
C305       C1873   1.475       .  S
C306        C921   1.481   1_655  S
C308       C1662   1.478       .  S
Fe309       O325   2.054       .  S
Fe309       O315   2.052       .  S
Fe309       O322   2.056       .  S
Fe309       O314   2.070       .  S
Fe309       O320   1.975       .  S
Fe310       O313   2.068       .  S
Fe310       O317   2.078       .  S
Fe310       O321   2.061       .  S
Fe310       O326   2.071       .  S
Fe310       O320   1.984       .  S
Fe311       O329   2.063       .  S
Fe311       O316   2.068       .  S
Fe311       O323   2.065       .  S
Fe311       O312   2.071       .  S
Fe311       O320   1.978       .  S
O312        C319   1.270       .  A
O313        C327   1.267       .  A
O314        C319   1.269       .  A
O315        C318   1.266       .  A
O316        C328   1.272       .  A
O317        C330   1.271       .  A
C318        O323   1.267       .  A
C318       C1201   1.462       .  S
C319       C1550   1.497       .  S
O321        C324   1.267       .  A
O322        C324   1.268       .  A
C324        C865   1.472       .  S
O325        C330   1.268       .  A
O326        C328   1.272       .  A
C327        O329   1.267       .  A
C327        C893   1.486       .  S
C328       C1005   1.481   1_554  S
C330       C2278   1.480       .  S
Fe331       O347   2.062       .  S
Fe331       O337   2.071       .  S
Fe331       O344   2.070       .  S
Fe331       O336   2.073       .  S
Fe331       O342   1.963       .  S
Fe332       O335   2.067       .  S
Fe332       O339   2.080       .  S
Fe332       O343   2.061       .  S
Fe332       O348   2.075       .  S
Fe332       O342   1.970       .  S
Fe333       O351   2.061       .  S
Fe333       O338   2.068       .  S
Fe333       O345   2.063       .  S
Fe333       O334   2.081       .  S
Fe333       O342   1.964       .  S
O334        C341   1.273       .  A
O335        C349   1.267       .  A
O336        C341   1.272       .  A
O337        C340   1.269       .  A
O338        C350   1.273       .  A
O339        C352   1.273       .  A
C340        O345   1.267       .  A
C340       C2069   1.477       .  S
C341       C1774   1.491       .  S
O343        C346   1.267       .  A
O344        C346   1.270       .  A
C346        C794   1.487       .  S
O347        C352   1.271       .  A
O348        C350   1.273       .  A
C349        O351   1.266       .  A
C349       C1130   1.472       .  S
C350        C809   1.477       .  S
C352        C837   1.480       .  S
Fe353       O369   2.062       .  S
Fe353       O359   2.045       .  S
Fe353       O366   2.061       .  S
Fe353       O358   2.053       .  S
Fe353       O364   1.960       .  S
Fe354       O357   2.048       .  S
Fe354       O361   2.065       .  S
Fe354       O365   2.064       .  S
Fe354       O370   2.060       .  S
Fe354       O364   1.970       .  S
Fe355       O373   2.075       .  S
Fe355       O360   2.074       .  S
Fe355       O367   2.080       .  S
Fe355       O356   2.082       .  S
Fe355       O364   1.974       .  S
O356        C363   1.271       .  A
O357        C371   1.263       .  A
O358        C363   1.266       .  A
O359        C362   1.267       .  A
O360        C372   1.275       .  A
O361        C374   1.269       .  A
C362        O367   1.272       .  A
C362       C1089   1.481       .  S
C363        C822   1.492       .  S
O365        C368   1.267       .  A
O366        C368   1.267       .  A
C368        C753   1.491       .  S
O369        C374   1.270       .  A
O370        C372   1.272       .  A
C371        O373   1.268       .  A
C371       C2306   1.476   1_455  S
C372        C878   1.474   1_455  S
C374        C738   1.488       .  S
Fe375       O391   2.053       .  S
Fe375       O381   2.060       .  S
Fe375       O388   2.063       .  S
Fe375       O380   2.052       .  S
Fe375       O386   1.958       .  S
Fe376       O379   2.058       .  S
Fe376       O383   2.078       .  S
Fe376       O387   2.072       .  S
Fe376       O392   2.073       .  S
Fe376       O386   1.966       .  S
Fe377       O395   2.082       .  S
Fe377       O382   2.067       .  S
Fe377       O389   2.062       .  S
Fe377       O378   2.093       .  S
Fe377       O386   1.968       .  S
O378        C385   1.276       .  A
O379        C393   1.267       .  A
O380        C385   1.271       .  A
O381        C384   1.266       .  A
O382        C394   1.273       .  A
O383        C396   1.274       .  A
C384        O389   1.265       .  A
C384       C1845   1.470       .  S
C385        C934   1.487       .  S
O387        C390   1.267       .  A
O388        C390   1.267       .  A
C390       C1382   1.494       .  S
O391        C396   1.271       .  A
O392        C394   1.273       .  A
C393        O395   1.270       .  A
C393        C710   1.486       .  S
C394        C781   1.490   1_556  S
C396       C1285   1.481       .  S
Fe397       O413   2.056       .  S
Fe397       O403   2.069       .  S
Fe397       O410   2.068       .  S
Fe397       O402   2.062       .  S
Fe397       O408   1.956       .  S
Fe398       O401   2.058       .  S
Fe398       O405   2.088       .  S
Fe398       O409   2.065       .  S
Fe398       O414   2.099       .  S
Fe398       O408   1.959       .  S
Fe399       O417   2.068       .  S
Fe399       O404   2.058       .  S
Fe399       O411   2.071       .  S
Fe399       O400   2.076       .  S
Fe399       O408   1.962       .  S
O400        C407   1.270       .  A
O401        C415   1.265       .  A
O402        C407   1.271       .  A
O403        C406   1.270       .  A
O404        C416   1.272       .  A
O405        C418   1.276       .  A
C406        O411   1.270       .  A
C406       C2446   1.475       .  S
C407        C641   1.487       .  S
O409        C412   1.268       .  A
O410        C412   1.267       .  A
C412        C906   1.488       .  S
O413        C418   1.273       .  A
O414        C416   1.280       .  A
C415        O417   1.266       .  A
C415       C1438   1.477       .  S
C416        C682   1.491       .  S
C418       C1074   1.487       .  S
Fe419       O435   2.048       .  S
Fe419       O425   2.047       .  S
Fe419       O432   2.058       .  S
Fe419       O424   2.049       .  S
Fe419       O430   1.964       .  S
Fe420       O423   2.076       .  S
Fe420       O427   2.069       .  S
Fe420       O431   2.085       .  S
Fe420       O436   2.060       .  S
Fe420       O430   1.984       .  S
Fe421       O439   2.060       .  S
Fe421       O426   2.085       .  S
Fe421       O433   2.085       .  S
Fe421       O422   2.076       .  S
Fe421       O430   1.987       .  S
O422        C429   1.271       .  A
O423        C437   1.271       .  A
O424        C429   1.267       .  A
O425        C428   1.267       .  A
O426        C438   1.273       .  A
O427        C440   1.267       .  A
C428        O433   1.270       .  A
C428       C2209   1.496       .  S
C429       C1914   1.488       .  S
O431        C434   1.274       .  A
O432        C434   1.268       .  A
C434        C669   1.494       .  S
O435        C440   1.264       .  A
O436        C438   1.268       .  A
C437        O439   1.269       .  A
C437        C766   1.480       .  S
C438        C613   1.495   1_556  S
C440       C1410   1.471       .  S
Fe441       O457   2.076       .  S
Fe441       O447   2.062       .  S
Fe441       O454   2.074       .  S
Fe441       O446   2.076       .  S
Fe441       O452   1.960       .  S
Fe442       O445   2.074       .  S
Fe442       O449   2.069       .  S
Fe442       O453   2.077       .  S
Fe442       O458   2.061       .  S
Fe442       O452   1.966       .  S
Fe443       O461   2.055       .  S
Fe443       O448   2.082       .  S
Fe443       O455   2.073       .  S
Fe443       O444   2.061       .  S
Fe443       O452   1.968       .  S
O444        C451   1.267       .  A
O445        C459   1.268       .  A
O446        C451   1.270       .  A
O447        C450   1.272       .  A
O448        C460   1.275       .  A
O449        C462   1.270       .  A
C450        O455   1.272       .  A
C450       C1634   1.489       .  S
C451       C1257   1.487       .  S
O453        C456   1.271       .  A
O454        C456   1.271       .  A
C456        C585   1.487       .  S
O457        C462   1.271       .  A
O458        C460   1.272       .  A
C459        O461   1.264       .  A
C459       C2474   1.481       .  S
C460        C654   1.483   1_545  S
C462        C949   1.471       .  S
Fe463       O479   2.054       .  S
Fe463       O469   2.073       .  S
Fe463       O476   2.067       .  S
Fe463       O468   2.059       .  S
Fe463       O474   1.959       .  S
Fe464       O467   2.064       .  S
Fe464       O471   2.069       .  S
Fe464       O475   2.057       .  S
Fe464       O480   2.071       .  S
Fe464       O474   1.966       .  S
Fe465       O483   2.074       .  S
Fe465       O470   2.067       .  S
Fe465       O477   2.066       .  S
Fe465       O466   2.083       .  S
Fe465       O474   1.967       .  S
O466        C473   1.270       .  A
O467        C481   1.265       .  A
O468        C473   1.265       .  A
O469        C472   1.274       .  A
O470        C482   1.275       .  A
O471        C484   1.269       .  A
C472        O477   1.273       .  A
C472        C850   1.479       .  S
C473        C697   1.493       .  S
O475        C478   1.268       .  A
O476        C478   1.271       .  A
C478        C529   1.476       .  S
O479        C484   1.267       .  A
O480        C482   1.274       .  A
C481        O483   1.268       .  A
C481       C1522   1.486       .  S
C482        C557   1.476       .  S
C484       C1942   1.479       .  S
Fe485       O501   2.041       .  S
Fe485       O491   2.057       .  S
Fe485       O498   2.052       .  S
Fe485       O490   2.054       .  S
Fe485       O496   1.966       .  S
Fe486       O489   2.060       .  S
Fe486       O493   2.084       .  S
Fe486       O497   2.075       .  S
Fe486       O502   2.094       .  S
Fe486       O496   1.978       .  S
Fe487       O505   2.060       .  S
Fe487       O492   2.060       .  S
Fe487       O499   2.068       .  S
Fe487       O488   2.069       .  S
Fe487       O496   1.976       .  S
O488        C495   1.270       .  A
O489        C503   1.266       .  A
O490        C495   1.269       .  A
O491        C494   1.267       .  A
O492        C504   1.272       .  A
O493        C506   1.273       .  A
C494        O499   1.268       .  A
C494       C1481   1.479       .  S
C495        C570   1.482       .  S
O497        C500   1.269       .  A
O498        C500   1.266       .  A
C500       C2321   1.490       .  S
O501        C506   1.268       .  A
O502        C504   1.277       .  A
C503        O505   1.266       .  A
C503        C990   1.474       .  S
C504        C598   1.491   1_554  S
C506       C1789   1.478       .  S
Fe507       O523   2.054       .  S
Fe507       O513   2.052       .  S
Fe507       O520   2.071       .  S
Fe507       O512   2.052       .  S
Fe507       O518   1.959       .  S
Fe508       O511   2.054       .  S
Fe508       O515   2.066       .  S
Fe508       O519   2.059       .  S
Fe508       O524   2.063       .  S
Fe508       O518   1.967       .  S
Fe509       O527   2.082       .  S
Fe509       O514   2.068       .  S
Fe509       O521   2.073       .  S
Fe509       O510   2.087       .  S
Fe509       O518   1.976       .  S
O510        C517   1.273       .  A
O511        C525   1.264       .  A
O512        C517   1.268       .  A
O513        C516   1.268       .  A
O514        C526   1.274       .  A
O515        C528   1.270       .  A
C516        O521   1.270       .  A
C516        C725   1.471       .  S
C517        C626   1.495       .  S
O519        C522   1.266       .  A
O520        C522   1.269       .  A
C522       C1242   1.495       .  S
O523        C528   1.269       .  A
O524        C526   1.271       .  A
C525        O527   1.270       .  A
C525       C1957   1.497   1_565  S
C526        C542   1.471   1_565  S
C528       C1145   1.486       .  S
C529        C530   1.407       .  A
C529        C534   1.407       .  A
C530        C531   1.399       .  A
C530        N535   1.432       .  S
C531        C532   1.402       .  A
C531        H536   1.084       .  S
C532        C537   1.476       .  S
C532        C533   1.408       .  A
C533        C534   1.406       .  A
C533        N538   1.438       .  S
C534        H539   1.084       .  S
N535        H555   1.046       .  S
N535        H556   1.046       .  S
C537        C540   1.403       .  A
C537        C544   1.408       .  A
N538        H553   1.046       .  S
N538        H554   1.046       .  S
C540        C541   1.410       .  A
C540        H545   1.083       .  S
C541        C542   1.413       .  A
C541        N546   1.437   1_545  S
C542        C543   1.400       .  A
C543        C544   1.396       .  A
C543        H547   1.084       .  S
C544        N548   1.439       .  S
N546        H549   1.046       .  S
N546        H550   1.046       .  S
N548        H551   1.046       .  S
N548        H552   1.046       .  S
C557        C558   1.413       .  A
C557        C562   1.403       .  A
C558        C559   1.402       .  A
C558        N563   1.438       .  S
C559        C560   1.401       .  A
C559        H564   1.084       .  S
C560        C565   1.483       .  S
C560        C561   1.413       .  A
C561        C562   1.407       .  A
C561        N566   1.438       .  S
C562        H567   1.084       .  S
N563        H583   1.046       .  S
N563        H584   1.046       .  S
C565        C568   1.403       .  A
C565        C572   1.411       .  A
N566        H581   1.046       .  S
N566        H582   1.046       .  S
C568        C569   1.407       .  A
C568        H573   1.084       .  S
C569        C570   1.414       .  A
C569        N574   1.438       .  S
C570        C571   1.405       .  A
C571        C572   1.401       .  A
C571        H575   1.084       .  S
C572        N576   1.439       .  S
N574        H577   1.046       .  S
N574        H578   1.046       .  S
N576        H579   1.046       .  S
N576        H580   1.046       .  S
C585        C586   1.410       .  A
C585        C590   1.406       .  A
C586        C587   1.410       .  A
C586        N591   1.437       .  S
C587        C588   1.408       .  A
C587        H592   1.083       .  S
C588        C593   1.495       .  S
C588        C589   1.412       .  A
C589        C590   1.407       .  A
C589        N594   1.438       .  S
C590        H595   1.083       .  S
N591        H611   1.046       .  S
N591        H612   1.046       .  S
C593        C596   1.408       .  A
C593        C600   1.411       .  A
N594        H609   1.046       .  S
N594        H610   1.046       .  S
C596        C597   1.413       .  A
C596        H601   1.083       .  S
C597        C598   1.413       .  A
C597        N602   1.437       .  S
C598        C599   1.406       .  A
C599        C600   1.404       .  A
C599        H603   1.084       .  S
C600        N604   1.438       .  S
N602        H605   1.046       .  S
N602        H606   1.046   1_556  S
N604        H607   1.046       .  S
N604        H608   1.046       .  S
C613        C614   1.418       .  A
C613        C618   1.409       .  A
C614        C615   1.407       .  A
C614        N619   1.438   1_554  S
C615        C616   1.400       .  A
C615        H620   1.084       .  S
C616        C621   1.485       .  S
C616        C617   1.409       .  A
C617        C618   1.410       .  A
C617        N622   1.438       .  S
C618        H623   1.083       .  S
N619        H639   1.046       .  S
N619        H640   1.046   1_556  S
C621        C624   1.405       .  A
C621        C628   1.406       .  A
N622        H637   1.046       .  S
N622        H638   1.046       .  S
C624        C625   1.415       .  A
C624        H629   1.083       .  S
C625        C626   1.417       .  A
C625        N630   1.437       .  S
C626        C627   1.409       .  A
C627        C628   1.400       .  A
C627        H631   1.083       .  S
C628        N632   1.439       .  S
N630        H633   1.046       .  S
N630        H634   1.046       .  S
N632        H635   1.046       .  S
N632        H636   1.046       .  S
C641        C642   1.415       .  A
C641        C646   1.405       .  A
C642        C643   1.405       .  A
C642        N647   1.433       .  S
C643        C644   1.402       .  A
C643        H648   1.084       .  S
C644        C649   1.484       .  S
C644        C645   1.410       .  A
C645        C646   1.404       .  A
C645        N650   1.438       .  S
C646        H651   1.083       .  S
N647        H667   1.046       .  S
N647        H668   1.046       .  S
C649        C652   1.402       .  A
C649        C656   1.411       .  A
N650        H665   1.046       .  S
N650        H666   1.046       .  S
C652        C653   1.405       .  A
C652        H657   1.084       .  S
C653        C654   1.414       .  A
C653        N658   1.438   1_565  S
C654        C655   1.405       .  A
C655        C656   1.406       .  A
C655        H659   1.084       .  S
C656        N660   1.438       .  S
N658        H661   1.046       .  S
N658        H662   1.046       .  S
N660        H663   1.046       .  S
N660        H664   1.046       .  S
C669        C670   1.424       .  A
C669        C674   1.410       .  A
C670        C671   1.397       .  A
C670        N675   1.433       .  S
C671        C672   1.397       .  A
C671        H676   1.084       .  S
C672        C677   1.483       .  S
C672        C673   1.409       .  A
C673        C674   1.412       .  A
C673        N678   1.437       .  S
C674        H679   1.084       .  S
N675        H695   1.045       .  S
N675        H696   1.045       .  S
C677        C680   1.400       .  A
C677        C684   1.410       .  A
N678        H693   1.045       .  S
N678        H694   1.045       .  S
C680        C681   1.406       .  A
C680        H685   1.084       .  S
C681        C682   1.416       .  A
C681        N686   1.433       .  S
C682        C683   1.406       .  A
C683        C684   1.408       .  A
C683        H687   1.083       .  S
C684        N688   1.438       .  S
N686        H689   1.046       .  S
N686        H690   1.046       .  S
N688        H691   1.046       .  S
N688        H692   1.045       .  S
C697        C698   1.416       .  A
C697        C702   1.406       .  A
C698        C699   1.405       .  A
C698        N703   1.432       .  S
C699        C700   1.403       .  A
C699        H704   1.084       .  S
C700        C705   1.495       .  S
C700        C701   1.413       .  A
C701        C702   1.409       .  A
C701        N706   1.437       .  S
C702        H707   1.083       .  S
N703        H723   1.046       .  S
N703        H724   1.046       .  S
C705        C708   1.404       .  A
C705        C712   1.414       .  A
N706        H721   1.046       .  S
N706        H722   1.046   1_554  S
C708        C709   1.404       .  A
C708        H713   1.084       .  S
C709        C710   1.413   1_554  A
C709        N714   1.439   1_554  S
C710        C711   1.406       .  A
C711        C712   1.412   1_556  A
C711        H715   1.084       .  S
C712        N716   1.437       .  S
N714        H717   1.046   1_556  S
N714        H718   1.046   1_556  S
N716        H719   1.046   1_554  S
N716        H720   1.046   1_554  S
C725        C726   1.407       .  A
C725        C730   1.404       .  A
C726        C727   1.399       .  A
C726        N731   1.433       .  S
C727        C728   1.400       .  A
C727        H732   1.084       .  S
C728        C733   1.475       .  S
C728        C729   1.410       .  A
C729        C730   1.407       .  A
C729        N734   1.438       .  S
C730        H735   1.084       .  S
N731        H751   1.046       .  S
N731        H752   1.046       .  S
C733        C736   1.400       .  A
C733        C740   1.406       .  A
N734        H749   1.046       .  S
N734        H750   1.046       .  S
C736        C737   1.410       .  A
C736        H741   1.084       .  S
C737        C738   1.419       .  A
C737        N742   1.437       .  S
C738        C739   1.407       .  A
C739        C740   1.398       .  A
C739        H743   1.083       .  S
C740        N744   1.439       .  S
N742        H745   1.046       .  S
N742        H746   1.045       .  S
N744        H747   1.046       .  S
N744        H748   1.046       .  S
C753        C754   1.417       .  A
C753        C758   1.408       .  A
C754        C755   1.404       .  A
C754        N759   1.438       .  S
C755        C756   1.403       .  A
C755        H760   1.083       .  S
C756        C761   1.491       .  S
C756        C757   1.411       .  A
C757        C758   1.407       .  A
C757        N762   1.438       .  S
C758        H763   1.083       .  S
N759        H779   1.046       .  S
N759        H780   1.046       .  S
C761        C764   1.406       .  A
C761        C768   1.413   1_554  A
N762        H777   1.046       .  S
N762        H778   1.045       .  S
C764        C765   1.406       .  A
C764        H769   1.083       .  S
C765        C766   1.411   1_554  A
C765        N770   1.438       .  S
C766        C767   1.405       .  A
C767        C768   1.406       .  A
C767        H771   1.084       .  S
C768        N772   1.438       .  S
N770        H773   1.046       .  S
N770        H774   1.045       .  S
N772        H775   1.046       .  S
N772        H776   1.045       .  S
C781        C782   1.419       .  A
C781        C786   1.409       .  A
C782        C783   1.406       .  A
C782        N787   1.438       .  S
C783        C784   1.399       .  A
C783        H788   1.084       .  S
C784        C789   1.478       .  S
C784        C785   1.407       .  A
C785        C786   1.406       .  A
C785        N790   1.438       .  S
C786        H791   1.084       .  S
N787        H807   1.046   1_554  S
N787        H808   1.046       .  S
C789        C792   1.401       .  A
C789        C796   1.408       .  A
N790        H805   1.046       .  S
N790        H806   1.045       .  S
C792        C793   1.408       .  A
C792        H797   1.084       .  S
C793        C794   1.414       .  A
C793        N798   1.432       .  S
C794        C795   1.407       .  A
C795        C796   1.402       .  A
C795        H799   1.083       .  S
C796        N800   1.439       .  S
N798        H801   1.046       .  S
N798        H802   1.046       .  S
N800        H803   1.046       .  S
N800        H804   1.045       .  S
C809        C810   1.411       .  A
C809        C814   1.403       .  A
C810        C811   1.406       .  A
C810        N815   1.438       .  S
C811        C812   1.405       .  A
C811        H816   1.084       .  S
C812        C817   1.488       .  S
C812        C813   1.412       .  A
C813        C814   1.408       .  A
C813        N818   1.437       .  S
C814        H819   1.084       .  S
N815        H835   1.046       .  S
N815        H836   1.046       .  S
C817        C820   1.401       .  A
C817        C824   1.410       .  A
N818        H833   1.046       .  S
N818        H834   1.046       .  S
C820        C821   1.404       .  A
C820        H825   1.084       .  S
C821        C822   1.418       .  A
C821        N826   1.438       .  S
C822        C823   1.408       .  A
C823        C824   1.410       .  A
C823        H827   1.083       .  S
C824        N828   1.437       .  S
N826        H829   1.046       .  S
N826        H830   1.046       .  S
N828        H831   1.046       .  S
N828        H832   1.046       .  S
C837        C838   1.414       .  A
C837        C842   1.405       .  A
C838        C839   1.405       .  A
C838        N843   1.438       .  S
C839        C840   1.400       .  A
C839        H844   1.084       .  S
C840        C845   1.478       .  S
C840        C841   1.409       .  A
C841        C842   1.407       .  A
C841        N846   1.438       .  S
C842        H847   1.084       .  S
N843        H863   1.045       .  S
N843        H864   1.046       .  S
C845        C848   1.401       .  A
C845        C852   1.408       .  A
N846        H861   1.046       .  S
N846        H862   1.046       .  S
C848        C849   1.409       .  A
C848        H853   1.084       .  S
C849        C850   1.415       .  A
C849        N854   1.438       .  S
C850        C851   1.404       .  A
C851        C852   1.401       .  A
C851        H855   1.084       .  S
C852        N856   1.438       .  S
N854        H857   1.046       .  S
N854        H858   1.046       .  S
N856        H859   1.046       .  S
N856        H860   1.046       .  S
C865        C866   1.412       .  A
C865        C870   1.405       .  A
C866        C867   1.400       .  A
C866        N871   1.439       .  S
C867        C868   1.399       .  A
C867        H872   1.084       .  S
C868        C873   1.472       .  S
C868        C869   1.407       .  A
C869        C870   1.407       .  A
C869        N874   1.437       .  S
C870        H875   1.084       .  S
N871        H891   1.046       .  S
N871        H892   1.046       .  S
C873        C876   1.399       .  A
C873        C880   1.408       .  A
N874        H889   1.046       .  S
N874        H890   1.045       .  S
C876        C877   1.401       .  A
C876        H881   1.084       .  S
C877        C878   1.409       .  A
C877        N882   1.432       .  S
C878        C879   1.405       .  A
C879        C880   1.405       .  A
C879        H883   1.084       .  S
C880        N884   1.438       .  S
N882        H885   1.046       .  S
N882        H886   1.045       .  S
N884        H887   1.046       .  S
N884        H888   1.045       .  S
C893        C894   1.414   1_554  A
C893        C898   1.405       .  A
C894        C895   1.408       .  A
C894        N899   1.438       .  S
C895        C896   1.405       .  A
C895        H900   1.083       .  S
C896        C901   1.493       .  S
C896        C897   1.412       .  A
C897        C898   1.407   1_556  A
C897        N902   1.438   1_556  S
C898        H903   1.084       .  S
N899        H919   1.046       .  S
N899        H920   1.046       .  S
C901        C904   1.403       .  A
C901        C908   1.412       .  A
N902        H917   1.046       .  S
N902        H918   1.045       .  S
C904        C905   1.405       .  A
C904        H909   1.083       .  S
C905        C906   1.416       .  A
C905        N910   1.438       .  S
C906        C907   1.407       .  A
C907        C908   1.410       .  A
C907        H911   1.084       .  S
C908        N912   1.437       .  S
N910        H913   1.046       .  S
N910        H914   1.045       .  S
N912        H915   1.046       .  S
N912        H916   1.045       .  S
C921        C922   1.413       .  A
C921        C926   1.404       .  A
C922        C923   1.405       .  A
C922        N927   1.438   1_455  S
C923        C924   1.403       .  A
C923        H928   1.084       .  S
C924        C929   1.488       .  S
C924        C925   1.412       .  A
C925        C926   1.407       .  A
C925        N930   1.438       .  S
C926        H931   1.084       .  S
N927        H947   1.046       .  S
N927        H948   1.046   1_655  S
C929        C932   1.405       .  A
C929        C936   1.410       .  A
N930        H945   1.046       .  S
N930        H946   1.046       .  S
C932        C933   1.410       .  A
C932        H937   1.083       .  S
C933        C934   1.414       .  A
C933        N938   1.437       .  S
C934        C935   1.406       .  A
C935        C936   1.402       .  A
C935        H939   1.083       .  S
C936        N940   1.439       .  S
N938        H941   1.046       .  S
N938        H942   1.046       .  S
N940        H943   1.046       .  S
N940        H944   1.046       .  S
C949        C950   1.408       .  A
C949        C954   1.400       .  A
C950        C951   1.409       .  A
C950        N955   1.435       .  S
C951        C952   1.406       .  A
C951        H956   1.083       .  S
C952        C957   1.488       .  S
C952        C953   1.412       .  A
C953        C954   1.403       .  A
C953        N958   1.438       .  S
C954        H959   1.084       .  S
N955        H975   1.045       .  S
N955        H976   1.046       .  S
C957        C960   1.403       .  A
C957        C964   1.412       .  A
N958        H973   1.046       .  S
N958        H974   1.045       .  S
C960        C961   1.399       .  A
C960        H965   1.084       .  S
C961        C962   1.409       .  A
C961        N966   1.433       .  S
C962        C963   1.406       .  A
C963        C964   1.410       .  A
C963        H967   1.084       .  S
C964        N968   1.437       .  S
N966        H969   1.046       .  S
N966        H970   1.046       .  S
N968        H971   1.046       .  S
N968        H972   1.045       .  S
C977        C978   1.416       .  A
C977        C982   1.406       .  A
C978        C979   1.410       .  A
C978        N983   1.437       .  S
C979        C980   1.401       .  A
C979        H984   1.084       .  S
C980        C985   1.476       .  S
C980        C981   1.407       .  A
C981        C982   1.400       .  A
C981        N986   1.439       .  S
C982        H987   1.083       .  S
N983       H1003   1.046       .  S
N983       H1004   1.046       .  S
C985        C988   1.401       .  A
C985        C992   1.408       .  A
N986       H1001   1.046       .  S
N986       H1002   1.045       .  S
C988        C989   1.403       .  A
C988        H993   1.084       .  S
C989        C990   1.412   1_556  A
C989        N994   1.439       .  S
C990        C991   1.404       .  A
C991        C992   1.406   1_554  A
C991        H995   1.083       .  S
C992        N996   1.438   1_556  S
N994        H997   1.046       .  S
N994        H998   1.046       .  S
N996        H999   1.046       .  S
N996       H1000   1.045   1_554  S
C1005      C1006   1.413       .  A
C1005      C1010   1.403       .  A
C1006      C1007   1.409       .  A
C1006      N1011   1.438   1_556  S
C1007      C1008   1.405       .  A
C1007      H1012   1.084       .  S
C1008      C1013   1.485       .  S
C1008      C1009   1.410       .  A
C1009      C1010   1.403       .  A
C1009      N1014   1.439       .  S
C1010      H1015   1.084       .  S
N1011      H1031   1.046       .  S
N1011      H1032   1.046   1_554  S
C1013      C1016   1.403       .  A
C1013      C1020   1.408       .  A
N1014      H1029   1.046       .  S
N1014      H1030   1.046       .  S
C1016      C1017   1.409       .  A
C1016      H1021   1.084       .  S
C1017      C1018   1.418       .  A
C1017      N1022   1.437       .  S
C1018      C1019   1.410       .  A
C1019      C1020   1.403       .  A
C1019      H1023   1.083       .  S
C1020      N1024   1.439       .  S
N1022      H1025   1.046       .  S
N1022      H1026   1.046       .  S
N1024      H1027   1.046       .  S
N1024      H1028   1.046       .  S
C1033      C1034   1.409       .  A
C1033      C1038   1.406       .  A
C1034      C1035   1.402       .  A
C1034      N1039   1.432       .  S
C1035      C1036   1.403       .  A
C1035      H1040   1.084       .  S
C1036      C1041   1.479       .  S
C1036      C1037   1.409       .  A
C1037      C1038   1.405       .  A
C1037      N1042   1.438       .  S
C1038      H1043   1.084       .  S
N1039      H1059   1.046       .  S
N1039      H1060   1.046       .  S
C1041      C1044   1.404       .  A
C1041      C1048   1.408       .  A
N1042      H1057   1.046       .  S
N1042      H1058   1.045       .  S
C1044      C1045   1.410       .  A
C1044      H1049   1.083       .  S
C1045      C1046   1.413       .  A
C1045      N1050   1.437       .  S
C1046      C1047   1.404       .  A
C1047      C1048   1.399       .  A
C1047      H1051   1.084       .  S
C1048      N1052   1.439       .  S
N1050      H1053   1.046       .  S
N1050      H1054   1.046       .  S
N1052      H1055   1.046       .  S
N1052      H1056   1.046       .  S
C1061      C1062   1.410       .  A
C1061      C1066   1.404       .  A
C1062      C1063   1.402       .  A
C1062      N1067   1.438       .  S
C1063      C1064   1.402       .  A
C1063      H1068   1.084       .  S
C1064      C1069   1.481       .  S
C1064      C1065   1.410       .  A
C1065      C1066   1.408       .  A
C1065      N1070   1.437       .  S
C1066      H1071   1.084       .  S
N1067      H1087   1.046       .  S
N1067      H1088   1.046       .  S
C1069      C1072   1.402       .  A
C1069      C1076   1.409       .  A
N1070      H1085   1.046       .  S
N1070      H1086   1.046       .  S
C1072      C1073   1.410       .  A
C1072      H1077   1.084       .  S
C1073      C1074   1.417       .  A
C1073      N1078   1.437       .  S
C1074      C1075   1.406       .  A
C1075      C1076   1.401       .  A
C1075      H1079   1.084       .  S
C1076      N1080   1.439       .  S
N1078      H1081   1.046       .  S
N1078      H1082   1.046       .  S
N1080      H1083   1.046       .  S
N1080      H1084   1.046       .  S
C1089      C1090   1.415       .  A
C1089      C1094   1.406       .  A
C1090      C1091   1.401       .  A
C1090      N1095   1.439       .  S
C1091      C1092   1.399       .  A
C1091      H1096   1.084       .  S
C1092      C1097   1.477       .  S
C1092      C1093   1.409       .  A
C1093      C1094   1.408       .  A
C1093      N1098   1.438       .  S
C1094      H1099   1.083       .  S
N1095      H1115   1.046       .  S
N1095      H1116   1.046       .  S
C1097      C1100   1.402       .  A
C1097      C1104   1.410       .  A
N1098      H1113   1.046       .  S
N1098      H1114   1.044       .  S
C1100      C1101   1.409       .  A
C1100      H1105   1.084       .  S
C1101      C1102   1.412       .  A
C1101      N1106   1.437       .  S
C1102      C1103   1.402       .  A
C1103      C1104   1.403       .  A
C1103      H1107   1.084       .  S
C1104      N1108   1.439       .  S
N1106      H1109   1.046       .  S
N1106      H1110   1.045       .  S
N1108      H1111   1.046       .  S
N1108      H1112   1.044       .  S
C1117      C1118   1.419       .  A
C1117      C1122   1.409       .  A
C1118      C1119   1.403       .  A
C1118      N1123   1.438       .  S
C1119      C1120   1.401       .  A
C1119      H1124   1.084       .  S
C1120      C1125   1.486       .  S
C1120      C1121   1.408       .  A
C1121      C1122   1.407       .  A
C1121      N1126   1.437       .  S
C1122      H1127   1.083       .  S
N1123      H1143   1.046       .  S
N1123      H1144   1.046       .  S
C1125      C1128   1.405       .  A
C1125      C1132   1.411       .  A
N1126      H1141   1.046       .  S
N1126      H1142   1.046       .  S
C1128      C1129   1.406       .  A
C1128      H1133   1.084       .  S
C1129      C1130   1.409       .  A
C1129      N1134   1.438       .  S
C1130      C1131   1.402       .  A
C1131      C1132   1.405       .  A
C1131      H1135   1.084       .  S
C1132      N1136   1.437       .  S
N1134      H1137   1.046       .  S
N1134      H1138   1.045       .  S
N1136      H1139   1.046       .  S
N1136      H1140   1.046       .  S
C1145      C1146   1.418       .  A
C1145      C1150   1.407       .  A
C1146      C1147   1.409       .  A
C1146      N1151   1.437       .  S
C1147      C1148   1.401       .  A
C1147      H1152   1.084       .  S
C1148      C1153   1.475       .  S
C1148      C1149   1.407       .  A
C1149      C1150   1.396       .  A
C1149      N1154   1.440       .  S
C1150      H1155   1.083       .  S
N1151      H1171   1.046       .  S
N1151      H1172   1.046       .  S
C1153      C1156   1.402       .  A
C1153      C1160   1.408       .  A
N1154      H1169   1.046       .  S
N1154      H1170   1.046       .  S
C1156      C1157   1.401       .  A
C1156      H1161   1.084       .  S
C1157      C1158   1.411       .  A
C1157      N1162   1.438       .  S
C1158      C1159   1.404       .  A
C1159      C1160   1.404       .  A
C1159      H1163   1.084       .  S
C1160      N1164   1.438       .  S
N1162      H1165   1.046       .  S
N1162      H1166   1.046       .  S
N1164      H1167   1.046       .  S
N1164      H1168   1.046       .  S
C1173      C1174   1.420       .  A
C1173      C1178   1.409       .  A
C1174      C1175   1.410       .  A
C1174      N1179   1.438       .  S
C1175      C1176   1.402       .  A
C1175      H1180   1.083       .  S
C1176      C1181   1.487       .  S
C1176      C1177   1.409       .  A
C1177      C1178   1.404       .  A
C1177      N1182   1.439       .  S
C1178      H1183   1.083       .  S
N1179      H1199   1.046       .  S
N1179      H1200   1.046       .  S
C1181      C1184   1.404       .  A
C1181      C1188   1.416       .  A
N1182      H1197   1.046       .  S
N1182      H1198   1.046       .  S
C1184      C1185   1.404       .  A
C1184      H1189   1.084       .  S
C1185      C1186   1.410       .  A
C1185      N1190   1.433       .  S
C1186      C1187   1.403       .  A
C1187      C1188   1.400       .  A
C1187      H1191   1.084       .  S
C1188      N1192   1.433       .  S
N1190      H1193   1.046       .  S
N1190      H1194   1.046       .  S
N1192      H1195   1.044       .  S
N1192      H1196   1.046       .  S
C1201      C1202   1.408       .  A
C1201      C1206   1.401       .  A
C1202      C1203   1.396       .  A
C1202      N1207   1.433       .  S
C1203      C1204   1.404       .  A
C1203      H1208   1.084       .  S
C1204      C1209   1.478       .  S
C1204      C1205   1.410       .  A
C1205      C1206   1.404       .  A
C1205      N1210   1.437       .  S
C1206      H1211   1.084       .  S
N1207      H1227   1.046       .  S
N1207      H1228   1.046       .  S
C1209      C1212   1.401       .  A
C1209      C1216   1.409       .  A
N1210      H1225   1.046       .  S
N1210      H1226   1.046       .  S
C1212      C1213   1.399       .  A
C1212      H1217   1.084       .  S
C1213      C1214   1.411       .  A
C1213      N1218   1.433       .  S
C1214      C1215   1.405       .  A
C1215      C1216   1.405       .  A
C1215      H1219   1.084       .  S
C1216      N1220   1.437       .  S
N1218      H1221   1.046       .  S
N1218      H1222   1.046       .  S
N1220      H1223   1.046       .  S
N1220      H1224   1.046       .  S
C1229      C1230   1.413       .  A
C1229      C1234   1.403       .  A
C1230      C1231   1.405       .  A
C1230      N1235   1.438       .  S
C1231      C1232   1.404       .  A
C1231      H1236   1.083       .  S
C1232      C1237   1.492       .  S
C1232      C1233   1.414       .  A
C1233      C1234   1.408       .  A
C1233      N1238   1.437       .  S
C1234      H1239   1.084       .  S
N1235      H1255   1.045       .  S
N1235      H1256   1.046       .  S
C1237      C1240   1.401       .  A
C1237      C1244   1.413       .  A
N1238      H1253   1.046       .  S
N1238      H1254   1.046       .  S
C1240      C1241   1.400       .  A
C1240      H1245   1.084       .  S
C1241      C1242   1.418       .  A
C1241      N1246   1.433       .  S
C1242      C1243   1.408       .  A
C1243      C1244   1.410       .  A
C1243      H1247   1.083       .  S
C1244      N1248   1.437       .  S
N1246      H1249   1.046       .  S
N1246      H1250   1.046       .  S
N1248      H1251   1.046       .  S
N1248      H1252   1.046       .  S
C1257      C1258   1.417       .  A
C1257      C1262   1.407       .  A
C1258      C1259   1.405       .  A
C1258      N1263   1.438       .  S
C1259      C1260   1.400       .  A
C1259      H1264   1.084       .  S
C1260      C1265   1.484       .  S
C1260      C1261   1.410       .  A
C1261      C1262   1.410       .  A
C1261      N1266   1.438       .  S
C1262      H1267   1.084       .  S
N1263      H1283   1.045       .  S
N1263      H1284   1.046       .  S
C1265      C1268   1.402       .  A
C1265      C1272   1.412       .  A
N1266      H1281   1.046       .  S
N1266      H1282   1.043       .  S
C1268      C1269   1.409       .  A
C1268      H1273   1.084       .  S
C1269      C1270   1.415       .  A
C1269      N1274   1.438       .  S
C1270      C1271   1.403       .  A
C1271      C1272   1.406       .  A
C1271      H1275   1.084       .  S
C1272      N1276   1.439       .  S
N1274      H1277   1.046       .  S
N1274      H1278   1.046       .  S
N1276      H1279   1.046       .  S
N1276      H1280   1.043       .  S
C1285      C1286   1.413       .  A
C1285      C1290   1.406       .  A
C1286      C1287   1.400       .  A
C1286      N1291   1.433       .  S
C1287      C1288   1.400       .  A
C1287      H1292   1.084       .  S
C1288      C1293   1.477       .  S
C1288      C1289   1.408       .  A
C1289      C1290   1.405       .  A
C1289      N1294   1.437       .  S
C1290      H1295   1.083       .  S
N1291      H1311   1.046       .  S
N1291      H1312   1.046       .  S
C1293      C1296   1.401       .  A
C1293      C1300   1.410       .  A
N1294      H1309   1.046       .  S
N1294      H1310   1.046       .  S
C1296      C1297   1.400       .  A
C1296      H1301   1.084       .  S
C1297      C1298   1.411       .  A
C1297      N1302   1.439       .  S
C1298      C1299   1.403       .  A
C1299      C1300   1.408       .  A
C1299      H1303   1.084       .  S
C1300      N1304   1.437       .  S
N1302      H1305   1.046       .  S
N1302      H1306   1.046       .  S
N1304      H1307   1.046       .  S
N1304      H1308   1.046       .  S
C1313      C1314   1.415       .  A
C1313      C1318   1.405       .  A
C1314      C1315   1.407       .  A
C1314      N1319   1.438       .  S
C1315      C1316   1.404       .  A
C1315      H1320   1.084       .  S
C1316      C1321   1.493       .  S
C1316      C1317   1.412       .  A
C1317      C1318   1.407       .  A
C1317      N1322   1.437       .  S
C1318      H1323   1.084       .  S
N1319      H1339   1.045       .  S
N1319      H1340   1.046       .  S
C1321      C1324   1.402       .  A
C1321      C1328   1.411       .  A
N1322      H1337   1.046       .  S
N1322      H1338   1.045       .  S
C1324      C1325   1.406       .  A
C1324      H1329   1.083       .  S
C1325      C1326   1.420       .  A
C1325      N1330   1.438       .  S
C1326      C1327   1.409       .  A
C1327      C1328   1.409       .  A
C1327      H1331   1.083       .  S
C1328      N1332   1.438       .  S
N1330      H1333   1.046       .  S
N1330      H1334   1.046       .  S
N1332      H1335   1.046       .  S
N1332      H1336   1.046       .  S
C1341      C1342   1.417       .  A
C1341      C1346   1.408       .  A
C1342      C1343   1.411       .  A
C1342      N1347   1.437       .  S
C1343      C1344   1.401       .  A
C1343      H1348   1.084       .  S
C1344      C1349   1.483       .  S
C1344      C1345   1.410       .  A
C1345      C1346   1.405       .  A
C1345      N1350   1.440       .  S
C1346      H1351   1.083       .  S
N1347      H1367   1.046       .  S
N1347      H1368   1.046       .  S
C1349      C1352   1.403       .  A
C1349      C1356   1.409       .  A
N1350      H1365   1.046       .  S
N1350      H1366   1.044       .  S
C1352      C1353   1.408       .  A
C1352      H1357   1.084       .  S
C1353      C1354   1.413       .  A
C1353      N1358   1.438       .  S
C1354      C1355   1.406       .  A
C1355      C1356   1.406       .  A
C1355      H1359   1.084       .  S
C1356      N1360   1.439       .  S
N1358      H1361   1.046       .  S
N1358      H1362   1.046       .  S
N1360      H1363   1.046       .  S
N1360      H1364   1.044       .  S
C1369      C1370   1.416       .  A
C1369      C1374   1.404       .  A
C1370      C1371   1.402       .  A
C1370      N1375   1.440       .  S
C1371      C1372   1.406       .  A
C1371      H1376   1.084       .  S
C1372      C1377   1.493       .  S
C1372      C1373   1.412       .  A
C1373      C1374   1.408       .  A
C1373      N1378   1.437       .  S
C1374      H1379   1.084       .  S
N1375      H1395   1.042       .  S
N1375      H1396   1.046       .  S
C1377      C1380   1.405       .  A
C1377      C1384   1.410       .  A
N1378      H1393   1.046       .  S
N1378      H1394   1.046       .  S
C1380      C1381   1.409       .  A
C1380      H1385   1.083       .  S
C1381      C1382   1.417       .  A
C1381      N1386   1.438       .  S
C1382      C1383   1.409       .  A
C1383      C1384   1.406       .  A
C1383      H1387   1.083       .  S
C1384      N1388   1.438       .  S
N1386      H1389   1.046       .  S
N1386      H1390   1.046       .  S
N1388      H1391   1.046       .  S
N1388      H1392   1.045       .  S
C1397      C1398   1.414       .  A
C1397      C1402   1.403       .  A
C1398      C1399   1.408       .  A
C1398      N1403   1.438       .  S
C1399      C1400   1.402       .  A
C1399      H1404   1.084       .  S
C1400      C1405   1.480       .  S
C1400      C1401   1.410       .  A
C1401      C1402   1.401       .  A
C1401      N1406   1.439       .  S
C1402      H1407   1.084       .  S
N1403      H1423   1.046       .  S
N1403      H1424   1.046       .  S
C1405      C1408   1.403       .  A
C1405      C1412   1.410       .  A
N1406      H1421   1.046       .  S
N1406      H1422   1.046       .  S
C1408      C1409   1.406       .  A
C1408      H1413   1.084       .  S
C1409      C1410   1.411       .  A
C1409      N1414   1.438       .  S
C1410      C1411   1.402       .  A
C1411      C1412   1.403       .  A
C1411      H1415   1.084       .  S
C1412      N1416   1.438       .  S
N1414      H1417   1.046       .  S
N1414      H1418   1.046       .  S
N1416      H1419   1.046       .  S
N1416      H1420   1.046       .  S
C1425      C1426   1.414       .  A
C1425      C1430   1.406       .  A
C1426      C1427   1.410       .  A
C1426      N1431   1.437       .  S
C1427      C1428   1.402       .  A
C1427      H1432   1.084       .  S
C1428      C1433   1.477       .  S
C1428      C1429   1.407       .  A
C1429      C1430   1.401       .  A
C1429      N1434   1.439       .  S
C1430      H1435   1.084       .  S
N1431      H1451   1.046       .  S
N1431      H1452   1.046       .  S
C1433      C1436   1.400       .  A
C1433      C1440   1.408       .  A
N1434      H1449   1.046       .  S
N1434      H1450   1.045       .  S
C1436      C1437   1.404       .  A
C1436      H1441   1.084       .  S
C1437      C1438   1.413       .  A
C1437      N1442   1.439       .  S
C1438      C1439   1.405       .  A
C1439      C1440   1.407       .  A
C1439      H1443   1.084       .  S
C1440      N1444   1.438       .  S
N1442      H1445   1.046       .  S
N1442      H1446   1.046       .  S
N1444      H1447   1.046       .  S
N1444      H1448   1.045       .  S
C1453      C1454   1.414       .  A
C1453      C1458   1.404       .  A
C1454      C1455   1.415       .  A
C1454      N1459   1.437       .  S
C1455      C1456   1.408       .  A
C1455      H1460   1.083       .  S
C1456      C1461   1.492       .  S
C1456      C1457   1.411       .  A
C1457      C1458   1.400       .  A
C1457      N1462   1.439       .  S
C1458      H1463   1.084       .  S
N1459      H1479   1.046       .  S
N1459      H1480   1.046       .  S
C1461      C1464   1.406       .  A
C1461      C1468   1.411       .  A
N1462      H1477   1.046       .  S
N1462      H1478   1.046       .  S
C1464      C1465   1.406       .  A
C1464      H1469   1.084       .  S
C1465      C1466   1.411       .  A
C1465      N1470   1.438       .  S
C1466      C1467   1.407       .  A
C1467      C1468   1.409       .  A
C1467      H1471   1.084       .  S
C1468      N1472   1.438       .  S
N1470      H1473   1.046       .  S
N1470      H1474   1.046       .  S
N1472      H1475   1.046       .  S
N1472      H1476   1.046       .  S
C1481      C1482   1.412       .  A
C1481      C1486   1.406       .  A
C1482      C1483   1.401       .  A
C1482      N1487   1.439       .  S
C1483      C1484   1.402       .  A
C1483      H1488   1.084       .  S
C1484      C1489   1.482       .  S
C1484      C1485   1.409       .  A
C1485      C1486   1.409       .  A
C1485      N1490   1.437       .  S
C1486      H1491   1.084       .  S
N1487      H1507   1.046       .  S
N1487      H1508   1.046       .  S
C1489      C1492   1.404       .  A
C1489      C1496   1.407       .  A
N1490      H1505   1.046       .  S
N1490      H1506   1.046       .  S
C1492      C1493   1.412       .  A
C1492      H1497   1.083       .  S
C1493      C1494   1.415       .  A
C1493      N1498   1.437       .  S
C1494      C1495   1.406       .  A
C1495      C1496   1.398       .  A
C1495      H1499   1.084       .  S
C1496      N1500   1.439       .  S
N1498      H1501   1.046       .  S
N1498      H1502   1.045       .  S
N1500      H1503   1.046       .  S
N1500      H1504   1.046       .  S
C1509      C1510   1.414       .  A
C1509      C1514   1.407       .  A
C1510      C1511   1.409       .  A
C1510      N1515   1.437       .  S
C1511      C1512   1.402       .  A
C1511      H1516   1.084       .  S
C1512      C1517   1.484       .  S
C1512      C1513   1.409       .  A
C1513      C1514   1.408       .  A
C1513      N1518   1.438       .  S
C1514      H1519   1.084       .  S
N1515      H1535   1.046       .  S
N1515      H1536   1.046       .  S
C1517      C1520   1.401       .  A
C1517      C1524   1.410       .  A
N1518      H1533   1.046       .  S
N1518      H1534   1.044       .  S
C1520      C1521   1.406       .  A
C1520      H1525   1.084       .  S
C1521      C1522   1.415       .  A
C1521      N1526   1.439       .  S
C1522      C1523   1.407       .  A
C1523      C1524   1.410       .  A
C1523      H1527   1.084       .  S
C1524      N1528   1.438       .  S
N1526      H1529   1.046       .  S
N1526      H1530   1.046       .  S
N1528      H1531   1.046       .  S
N1528      H1532   1.044       .  S
C1537      C1538   1.410       .  A
C1537      C1542   1.407       .  A
C1538      C1539   1.400       .  A
C1538      N1543   1.433       .  S
C1539      C1540   1.402       .  A
C1539      H1544   1.084       .  S
C1540      C1545   1.489       .  S
C1540      C1541   1.412       .  A
C1541      C1542   1.413       .  A
C1541      N1546   1.437       .  S
C1542      H1547   1.083       .  S
N1543      H1563   1.046       .  S
N1543      H1564   1.046       .  S
C1545      C1548   1.403       .  A
C1545      C1552   1.409       .  A
N1546      H1561   1.046       .  S
N1546      H1562   1.046       .  S
C1548      C1549   1.408       .  A
C1548      H1553   1.084       .  S
C1549      C1550   1.417       .  A
C1549      N1554   1.432       .  S
C1550      C1551   1.408       .  A
C1551      C1552   1.405       .  A
C1551      H1555   1.083       .  S
C1552      N1556   1.438       .  S
N1554      H1557   1.046       .  S
N1554      H1558   1.046       .  S
N1556      H1559   1.046       .  S
N1556      H1560   1.046       .  S
C1565      C1566   1.417       .  A
C1565      C1570   1.409       .  A
C1566      C1567   1.404       .  A
C1566      N1571   1.438       .  S
C1567      C1568   1.401       .  A
C1567      H1572   1.084       .  S
C1568      C1573   1.484       .  S
C1568      C1569   1.408       .  A
C1569      C1570   1.408       .  A
C1569      N1574   1.437       .  S
C1570      H1575   1.083       .  S
N1571      H1591   1.046       .  S
N1571      H1592   1.046       .  S
C1573      C1576   1.403       .  A
C1573      C1580   1.408       .  A
N1574      H1589   1.046       .  S
N1574      H1590   1.046       .  S
C1576      C1577   1.407       .  A
C1576      H1581   1.084       .  S
C1577      C1578   1.414       .  A
C1577      N1582   1.438       .  S
C1578      C1579   1.407       .  A
C1579      C1580   1.405       .  A
C1579      H1583   1.084       .  S
C1580      N1584   1.437       .  S
N1582      H1585   1.046       .  S
N1582      H1586   1.045       .  S
N1584      H1587   1.046       .  S
N1584      H1588   1.046       .  S
C1593      C1594   1.421       .  A
C1593      C1598   1.410       .  A
C1594      C1595   1.405       .  A
C1594      N1599   1.438       .  S
C1595      C1596   1.398       .  A
C1595      H1600   1.084       .  S
C1596      C1601   1.480       .  S
C1596      C1597   1.406       .  A
C1597      C1598   1.408       .  A
C1597      N1602   1.437       .  S
C1598      H1603   1.083       .  S
N1599      H1619   1.046       .  S
N1599      H1620   1.046       .  S
C1601      C1604   1.402       .  A
C1601      C1608   1.410       .  A
N1602      H1617   1.046       .  S
N1602      H1618   1.045       .  S
C1604      C1605   1.408       .  A
C1604      H1609   1.084       .  S
C1605      C1606   1.412       .  A
C1605      N1610   1.437       .  S
C1606      C1607   1.402       .  A
C1607      C1608   1.405       .  A
C1607      H1611   1.084       .  S
C1608      N1612   1.438       .  S
N1610      H1613   1.046       .  S
N1610      H1614   1.046       .  S
N1612      H1615   1.046       .  S
N1612      H1616   1.045       .  S
C1621      C1622   1.408       .  A
C1621      C1626   1.401       .  A
C1622      C1623   1.407       .  A
C1622      N1627   1.438       .  S
C1623      C1624   1.405       .  A
C1623      H1628   1.084       .  S
C1624      C1629   1.480       .  S
C1624      C1625   1.410       .  A
C1625      C1626   1.400       .  A
C1625      N1630   1.439       .  S
C1626      H1631   1.085       .  S
N1627      H1647   1.046       .  S
N1627      H1648   1.046       .  S
C1629      C1632   1.400       .  A
C1629      C1636   1.414       .  A
N1630      H1645   1.046       .  S
N1630      H1646   1.046       .  S
C1632      C1633   1.401       .  A
C1632      H1637   1.084       .  S
C1633      C1634   1.416       .  A
C1633      N1638   1.436       .  S
C1634      C1635   1.409       .  A
C1635      C1636   1.402       .  A
C1635      H1639   1.084       .  S
C1636      N1640   1.438       .  S
N1638      H1641   1.046       .  S
N1638      H1642   1.043       .  S
N1640      H1643   1.045       .  S
N1640      H1644   1.044       .  S
C1649      C1650   1.417       .  A
C1649      C1654   1.409       .  A
C1650      C1651   1.397       .  A
C1650      N1655   1.433       .  S
C1651      C1652   1.397       .  A
C1651      H1656   1.084       .  S
C1652      C1657   1.476       .  S
C1652      C1653   1.408       .  A
C1653      C1654   1.409       .  A
C1653      N1658   1.438       .  S
C1654      H1659   1.083       .  S
N1655      H1675   1.046       .  S
N1655      H1676   1.046       .  S
C1657      C1660   1.402       .  A
C1657      C1664   1.408       .  A
N1658      H1673   1.046       .  S
N1658      H1674   1.046       .  S
C1660      C1661   1.407       .  A
C1660      H1665   1.084       .  S
C1661      C1662   1.411       .  A
C1661      N1666   1.432       .  S
C1662      C1663   1.404       .  A
C1663      C1664   1.399       .  A
C1663      H1667   1.084       .  S
C1664      N1668   1.439       .  S
N1666      H1669   1.046       .  S
N1666      H1670   1.045       .  S
N1668      H1671   1.046       .  S
N1668      H1672   1.046       .  S
C1677      C1678   1.418       .  A
C1677      C1682   1.411       .  A
C1678      C1679   1.409       .  A
C1678      N1683   1.438       .  S
C1679      C1680   1.404       .  A
C1679      H1684   1.084       .  S
C1680      C1685   1.485       .  S
C1680      C1681   1.406       .  A
C1681      C1682   1.403       .  A
C1681      N1686   1.438       .  S
C1682      H1687   1.083       .  S
N1683      H1703   1.046       .  S
N1683      H1704   1.046       .  S
C1685      C1688   1.405       .  A
C1685      C1692   1.408       .  A
N1686      H1701   1.046       .  S
N1686      H1702   1.046       .  S
C1688      C1689   1.411       .  A
C1688      H1693   1.084       .  S
C1689      C1690   1.415       .  A
C1689      N1694   1.437       .  S
C1690      C1691   1.407       .  A
C1691      C1692   1.402       .  A
C1691      H1695   1.084       .  S
C1692      N1696   1.439       .  S
N1694      H1697   1.046       .  S
N1694      H1698   1.046       .  S
N1696      H1699   1.046       .  S
N1696      H1700   1.046       .  S
C1705      C1706   1.418       .  A
C1705      C1710   1.405       .  A
C1706      C1707   1.408       .  A
C1706      N1711   1.438       .  S
C1707      C1708   1.400       .  A
C1707      H1712   1.084       .  S
C1708      C1713   1.476       .  S
C1708      C1709   1.407       .  A
C1709      C1710   1.401       .  A
C1709      N1714   1.438       .  S
C1710      H1715   1.084       .  S
N1711      H1731   1.046       .  S
N1711      H1732   1.046       .  S
C1713      C1716   1.400       .  A
C1713      C1720   1.409       .  A
N1714      H1729   1.046       .  S
N1714      H1730   1.046       .  S
C1716      C1717   1.399       .  A
C1716      H1721   1.084       .  S
C1717      C1718   1.410       .  A
C1717      N1722   1.439       .  S
C1718      C1719   1.403       .  A
C1719      C1720   1.408       .  A
C1719      H1723   1.084       .  S
C1720      N1724   1.437       .  S
N1722      H1725   1.046       .  S
N1722      H1726   1.046       .  S
N1724      H1727   1.046       .  S
N1724      H1728   1.046       .  S
C1733      C1734   1.418       .  A
C1733      C1738   1.410       .  A
C1734      C1735   1.408       .  A
C1734      N1739   1.438       .  S
C1735      C1736   1.403       .  A
C1735      H1740   1.084       .  S
C1736      C1741   1.489       .  S
C1736      C1737   1.408       .  A
C1737      C1738   1.405       .  A
C1737      N1742   1.438       .  S
C1738      H1743   1.083       .  S
N1739      H1759   1.046       .  S
N1739      H1760   1.046       .  S
C1741      C1744   1.405       .  A
C1741      C1748   1.410       .  A
N1742      H1757   1.046       .  S
N1742      H1758   1.045       .  S
C1744      C1745   1.406       .  A
C1744      H1749   1.084       .  S
C1745      C1746   1.412       .  A
C1745      N1750   1.438       .  S
C1746      C1747   1.406       .  A
C1747      C1748   1.407       .  A
C1747      H1751   1.084       .  S
C1748      N1752   1.437       .  S
N1750      H1753   1.046       .  S
N1750      H1754   1.046       .  S
N1752      H1755   1.046       .  S
N1752      H1756   1.046       .  S
C1761      C1762   1.415       .  A
C1761      C1766   1.404   1_655  A
C1762      C1763   1.413       .  A
C1762      N1767   1.438       .  S
C1763      C1764   1.404   1_655  A
C1763      H1768   1.084       .  S
C1764      C1769   1.485       .  S
C1764      C1765   1.409       .  A
C1765      C1766   1.404       .  A
C1765      N1770   1.438       .  S
C1766      H1771   1.084       .  S
N1767      H1787   1.046       .  S
N1767      H1788   1.046       .  S
C1769      C1772   1.398       .  A
C1769      C1776   1.411       .  A
N1770      H1785   1.046       .  S
N1770      H1786   1.044       .  S
C1772      C1773   1.405       .  A
C1772      H1777   1.084       .  S
C1773      C1774   1.418       .  A
C1773      N1778   1.439       .  S
C1774      C1775   1.408       .  A
C1775      C1776   1.413       .  A
C1775      H1779   1.083       .  S
C1776      N1780   1.438       .  S
N1778      H1781   1.046       .  S
N1778      H1782   1.046       .  S
N1780      H1783   1.046       .  S
N1780      H1784   1.045       .  S
C1789      C1790   1.414       .  A
C1789      C1794   1.403       .  A
C1790      C1791   1.410       .  A
C1790      N1795   1.437       .  S
C1791      C1792   1.403       .  A
C1791      H1796   1.083       .  S
C1792      C1797   1.478       .  S
C1792      C1793   1.408       .  A
C1793      C1794   1.397       .  A
C1793      N1798   1.439       .  S
C1794      H1799   1.084       .  S
N1795      H1815   1.045       .  S
N1795      H1816   1.046       .  S
C1797      C1800   1.402       .  A
C1797      C1804   1.410       .  A
N1798      H1813   1.046       .  S
N1798      H1814   1.046       .  S
C1800      C1801   1.401       .  A
C1800      H1805   1.084       .  S
C1801      C1802   1.409       .  A
C1801      N1806   1.438       .  S
C1802      C1803   1.403       .  A
C1803      C1804   1.407       .  A
C1803      H1807   1.084       .  S
C1804      N1808   1.437       .  S
N1806      H1809   1.046       .  S
N1806      H1810   1.046       .  S
N1808      H1811   1.046       .  S
N1808      H1812   1.046       .  S
C1817      C1818   1.417       .  A
C1817      C1822   1.411       .  A
C1818      C1819   1.399       .  A
C1818      N1823   1.433       .  S
C1819      C1820   1.401       .  A
C1819      H1824   1.084       .  S
C1820      C1825   1.485       .  S
C1820      C1821   1.409       .  A
C1821      C1822   1.410       .  A
C1821      N1826   1.437       .  S
C1822      H1827   1.083       .  S
N1823      H1843   1.046       .  S
N1823      H1844   1.046       .  S
C1825      C1828   1.405       .  A
C1825      C1832   1.411       .  A
N1826      H1841   1.046       .  S
N1826      H1842   1.046       .  S
C1828      C1829   1.407       .  A
C1828      H1833   1.084       .  S
C1829      C1830   1.410       .  A
C1829      N1834   1.438       .  S
C1830      C1831   1.400       .  A
C1831      C1832   1.404       .  A
C1831      H1835   1.084       .  S
C1832      N1836   1.437       .  S
N1834      H1837   1.046       .  S
N1834      H1838   1.046       .  S
N1836      H1839   1.046       .  S
N1836      H1840   1.046       .  S
C1845      C1846   1.409       .  A
C1845      C1850   1.402       .  A
C1846      C1847   1.408       .  A
C1846      N1851   1.437       .  S
C1847      C1848   1.405       .  A
C1847      H1852   1.084       .  S
C1848      C1853   1.479       .  S
C1848      C1849   1.409       .  A
C1849      C1850   1.399       .  A
C1849      N1854   1.439       .  S
C1850      H1855   1.085       .  S
N1851      H1871   1.045       .  S
N1851      H1872   1.046       .  S
C1853      C1856   1.403       .  A
C1853      C1860   1.408       .  A
N1854      H1869   1.046       .  S
N1854      H1870   1.046       .  S
C1856      C1857   1.407       .  A
C1856      H1861   1.084       .  S
C1857      C1858   1.415       .  A
C1857      N1862   1.438       .  S
C1858      C1859   1.406       .  A
C1859      C1860   1.400       .  A
C1859      H1863   1.084       .  S
C1860      N1864   1.439       .  S
N1862      H1865   1.046       .  S
N1862      H1866   1.045       .  S
N1864      H1867   1.046       .  S
N1864      H1868   1.046       .  S
C1873      C1874   1.411       .  A
C1873      C1878   1.402   1_655  A
C1874      C1875   1.411       .  A
C1874      N1879   1.437       .  S
C1875      C1876   1.404   1_655  A
C1875      H1880   1.083       .  S
C1876      C1881   1.479       .  S
C1876      C1877   1.409       .  A
C1877      C1878   1.401       .  A
C1877      N1882   1.439       .  S
C1878      H1883   1.084       .  S
N1879      H1899   1.046       .  S
N1879      H1900   1.046       .  S
C1881      C1884   1.398       .  A
C1881      C1888   1.407       .  A
N1882      H1897   1.046       .  S
N1882      H1898   1.045       .  S
C1884      C1885   1.406       .  A
C1884      H1889   1.084       .  S
C1885      C1886   1.420       .  A
C1885      N1890   1.438       .  S
C1886      C1887   1.409       .  A
C1887      C1888   1.407       .  A
C1887      H1891   1.083       .  S
C1888      N1892   1.438       .  S
N1890      H1893   1.046       .  S
N1890      H1894   1.045       .  S
N1892      H1895   1.046       .  S
N1892      H1896   1.045       .  S
C1901      C1902   1.414       .  A
C1901      C1906   1.407       .  A
C1902      C1903   1.408   1_545  A
C1902      N1907   1.438       .  S
C1903      C1904   1.405       .  A
C1903      H1908   1.084       .  S
C1904      C1909   1.486       .  S
C1904      C1905   1.409       .  A
C1905      C1906   1.401   1_565  A
C1905      N1910   1.439       .  S
C1906      H1911   1.083       .  S
N1907      H1927   1.046       .  S
N1907      H1928   1.046       .  S
C1909      C1912   1.406       .  A
C1909      C1916   1.408       .  A
N1910      H1925   1.046       .  S
N1910      H1926   1.046       .  S
C1912      C1913   1.409       .  A
C1912      H1917   1.084       .  S
C1913      C1914   1.414       .  A
C1913      N1918   1.437       .  S
C1914      C1915   1.408       .  A
C1915      C1916   1.401       .  A
C1915      H1919   1.083       .  S
C1916      N1920   1.439       .  S
N1918      H1921   1.046       .  S
N1918      H1922   1.046       .  S
N1920      H1923   1.046       .  S
N1920      H1924   1.046       .  S
C1929      C1930   1.409       .  A
C1929      C1934   1.401       .  A
C1930      C1931   1.406       .  A
C1930      N1935   1.438       .  S
C1931      C1932   1.406       .  A
C1931      H1936   1.083       .  S
C1932      C1937   1.486       .  S
C1932      C1933   1.412       .  A
C1933      C1934   1.402       .  A
C1933      N1938   1.438       .  S
C1934      H1939   1.084       .  S
N1935      H1955   1.046       .  S
N1935      H1956   1.046       .  S
C1937      C1940   1.404       .  A
C1937      C1944   1.412       .  A
N1938      H1953   1.046       .  S
N1938      H1954   1.046       .  S
C1940      C1941   1.398       .  A
C1940      H1945   1.084       .  S
C1941      C1942   1.409       .  A
C1941      N1946   1.433       .  S
C1942      C1943   1.406       .  A
C1943      C1944   1.408       .  A
C1943      H1947   1.084       .  S
C1944      N1948   1.437       .  S
N1946      H1949   1.046       .  S
N1946      H1950   1.046       .  S
N1948      H1951   1.046       .  S
N1948      H1952   1.045       .  S
C1957      C1958   1.418       .  A
C1957      C1962   1.408       .  A
C1958      C1959   1.400       .  A
C1958      N1963   1.433       .  S
C1959      C1960   1.401       .  A
C1959      H1964   1.084       .  S
C1960      C1965   1.493       .  S
C1960      C1961   1.413       .  A
C1961      C1962   1.412       .  A
C1961      N1966   1.437       .  S
C1962      H1967   1.083       .  S
N1963      H1983   1.046   1_545  S
N1963      H1984   1.046       .  S
C1965      C1968   1.402       .  A
C1965      C1972   1.412       .  A
N1966      H1981   1.046       .  S
N1966      H1982   1.046       .  S
C1968      C1969   1.406       .  A
C1968      H1973   1.083       .  S
C1969      C1970   1.420       .  A
C1969      N1974   1.438       .  S
C1970      C1971   1.408       .  A
C1971      C1972   1.408       .  A
C1971      H1975   1.083       .  S
C1972      N1976   1.438       .  S
N1974      H1977   1.046       .  S
N1974      H1978   1.046       .  S
N1976      H1979   1.046       .  S
N1976      H1980   1.046       .  S
C1985      C1986   1.414       .  A
C1985      C1990   1.406       .  A
C1986      C1987   1.406       .  A
C1986      N1991   1.438       .  S
C1987      C1988   1.403       .  A
C1987      H1992   1.084       .  S
C1988      C1993   1.485       .  S
C1988      C1989   1.410       .  A
C1989      C1990   1.406       .  A
C1989      N1994   1.438       .  S
C1990      H1995   1.083       .  S
N1991      H2011   1.046       .  S
N1991      H2012   1.046       .  S
C1993      C1996   1.404       .  A
C1993      C2000   1.411       .  A
N1994      H2009   1.046       .  S
N1994      H2010   1.046       .  S
C1996      C1997   1.409       .  A
C1996      H2001   1.084       .  S
C1997      C1998   1.414       .  A
C1997      N2002   1.438       .  S
C1998      C1999   1.404       .  A
C1999      C2000   1.402       .  A
C1999      H2003   1.084       .  S
C2000      N2004   1.439       .  S
N2002      H2005   1.046       .  S
N2002      H2006   1.046       .  S
N2004      H2007   1.046       .  S
N2004      H2008   1.046       .  S
C2013      C2014   1.407       .  A
C2013      C2018   1.403       .  A
C2014      C2015   1.403       .  A
C2014      N2019   1.432       .  S
C2015      C2016   1.406       .  A
C2015      H2020   1.084       .  S
C2016      C2021   1.489       .  S
C2016      C2017   1.417       .  A
C2017      C2018   1.398       .  A
C2017      N2022   1.433       .  S
C2018      H2023   1.084       .  S
N2019      H2039   1.046       .  S
N2019      H2040   1.046       .  S
C2021      C2024   1.405       .  A
C2021      C2028   1.413       .  A
N2022      H2037   1.043       .  S
N2022      H2038   1.045       .  S
C2024      C2025   1.409       .  A
C2024      H2029   1.082       .  S
C2025      C2026   1.412       .  A
C2025      N2030   1.437   1_455  S
C2026      C2027   1.404       .  A
C2027      C2028   1.402       .  A
C2027      H2031   1.084       .  S
C2028      N2032   1.439       .  S
N2030      H2033   1.046       .  S
N2030      H2034   1.046       .  S
N2032      H2035   1.046       .  S
N2032      H2036   1.046       .  S
C2041      C2042   1.420       .  A
C2041      C2046   1.409       .  A
C2042      C2043   1.405       .  A
C2042      N2047   1.438       .  S
C2043      C2044   1.402       .  A
C2043      H2048   1.084       .  S
C2044      C2049   1.487       .  S
C2044      C2045   1.409       .  A
C2045      C2046   1.405       .  A
C2045      N2050   1.438       .  S
C2046      H2051   1.083       .  S
N2047      H2067   1.046       .  S
N2047      H2068   1.046       .  S
C2049      C2052   1.403       .  A
C2049      C2056   1.410       .  A
N2050      H2065   1.046       .  S
N2050      H2066   1.045       .  S
C2052      C2053   1.404       .  A
C2052      H2057   1.084       .  S
C2053      C2054   1.416       .  A
C2053      N2058   1.438       .  S
C2054      C2055   1.407       .  A
C2055      C2056   1.405       .  A
C2055      H2059   1.084       .  S
C2056      N2060   1.438       .  S
N2058      H2061   1.046       .  S
N2058      H2062   1.046       .  S
N2060      H2063   1.046       .  S
N2060      H2064   1.046       .  S
C2069      C2070   1.414       .  A
C2069      C2074   1.402       .  A
C2070      C2071   1.410       .  A
C2070      N2075   1.438       .  S
C2071      C2072   1.402       .  A
C2071      H2076   1.083       .  S
C2072      C2077   1.477       .  S
C2072      C2073   1.409       .  A
C2073      C2074   1.400       .  A
C2073      N2078   1.439       .  S
C2074      H2079   1.084       .  S
N2075      H2095   1.046       .  S
N2075      H2096   1.046       .  S
C2077      C2080   1.403       .  A
C2077      C2084   1.410       .  A
N2078      H2093   1.046       .  S
N2078      H2094   1.046       .  S
C2080      C2081   1.403       .  A
C2080      H2085   1.084       .  S
C2081      C2082   1.406       .  A
C2081      N2086   1.432       .  S
C2082      C2083   1.401       .  A
C2083      C2084   1.404       .  A
C2083      H2087   1.084       .  S
C2084      N2088   1.438       .  S
N2086      H2089   1.045       .  S
N2086      H2090   1.046       .  S
N2088      H2091   1.046       .  S
N2088      H2092   1.046       .  S
C2097      C2098   1.419       .  A
C2097      C2102   1.409       .  A
C2098      C2099   1.410       .  A
C2098      N2103   1.437       .  S
C2099      C2100   1.403       .  A
C2099      H2104   1.084       .  S
C2100      C2105   1.483       .  S
C2100      C2101   1.408       .  A
C2101      C2102   1.398       .  A
C2101      N2106   1.439       .  S
C2102      H2107   1.083       .  S
N2103      H2123   1.045       .  S
N2103      H2124   1.046       .  S
C2105      C2108   1.403       .  A
C2105      C2112   1.412       .  A
N2106      H2121   1.046       .  S
N2106      H2122   1.046       .  S
C2108      C2109   1.399       .  A
C2108      H2113   1.084       .  S
C2109      C2110   1.409       .  A
C2109      N2114   1.433       .  S
C2110      C2111   1.405       .  A
C2111      C2112   1.406       .  A
C2111      H2115   1.084       .  S
C2112      N2116   1.438       .  S
N2114      H2117   1.046       .  S
N2114      H2118   1.046       .  S
N2116      H2119   1.046       .  S
N2116      H2120   1.046       .  S
C2125      C2126   1.417       .  A
C2125      C2130   1.411       .  A
C2126      C2127   1.409       .  A
C2126      N2131   1.437       .  S
C2127      C2128   1.404       .  A
C2127      H2132   1.084       .  S
C2128      C2133   1.485       .  S
C2128      C2129   1.407       .  A
C2129      C2130   1.403       .  A
C2129      N2134   1.438       .  S
C2130      H2135   1.083       .  S
N2131      H2151   1.046       .  S
N2131      H2152   1.046       .  S
C2133      C2136   1.404       .  A
C2133      C2140   1.407       .  A
N2134      H2149   1.046       .  S
N2134      H2150   1.046       .  S
C2136      C2137   1.410       .  A
C2136      H2141   1.084       .  S
C2137      C2138   1.416       .  A
C2137      N2142   1.437       .  S
C2138      C2139   1.409       .  A
C2139      C2140   1.402       .  A
C2139      H2143   1.083       .  S
C2140      N2144   1.439       .  S
N2142      H2145   1.046       .  S
N2142      H2146   1.046       .  S
N2144      H2147   1.046       .  S
N2144      H2148   1.046       .  S
C2153      C2154   1.414       .  A
C2153      C2158   1.406       .  A
C2154      C2155   1.404       .  A
C2154      N2159   1.439       .  S
C2155      C2156   1.400       .  A
C2155      H2160   1.084       .  S
C2156      C2161   1.477       .  S
C2156      C2157   1.408       .  A
C2157      C2158   1.406       .  A
C2157      N2162   1.438       .  S
C2158      H2163   1.084   1_565  S
N2159      H2179   1.046       .  S
N2159      H2180   1.046       .  S
C2161      C2164   1.401       .  A
C2161      C2168   1.409       .  A
N2162      H2177   1.046       .  S
N2162      H2178   1.044       .  S
C2164      C2165   1.408       .  A
C2164      H2169   1.084       .  S
C2165      C2166   1.415       .  A
C2165      N2170   1.437       .  S
C2166      C2167   1.405       .  A
C2167      C2168   1.402       .  A
C2167      H2171   1.084       .  S
C2168      N2172   1.439       .  S
N2170      H2173   1.046       .  S
N2170      H2174   1.045       .  S
N2172      H2175   1.046       .  S
N2172      H2176   1.044       .  S
C2181      C2182   1.419       .  A
C2181      C2186   1.408       .  A
C2182      C2183   1.409       .  A
C2182      N2187   1.438       .  S
C2183      C2184   1.404       .  A
C2183      H2188   1.084       .  S
C2184      C2189   1.491       .  S
C2184      C2185   1.411       .  A
C2185      C2186   1.404       .  A
C2185      N2190   1.439       .  S
C2186      H2191   1.083       .  S
N2187      H2207   1.046       .  S
N2187      H2208   1.046       .  S
C2189      C2192   1.404       .  A
C2189      C2196   1.414       .  A
N2190      H2205   1.046       .  S
N2190      H2206   1.046       .  S
C2192      C2193   1.407   1_655  A
C2192      H2197   1.084       .  S
C2193      C2194   1.414   1_455  A
C2193      N2198   1.438       .  S
C2194      C2195   1.404       .  A
C2195      C2196   1.406       .  A
C2195      H2199   1.084       .  S
C2196      N2200   1.438       .  S
N2198      H2201   1.046       .  S
N2198      H2202   1.046       .  S
N2200      H2203   1.046       .  S
N2200      H2204   1.046       .  S
C2209      C2210   1.420       .  A
C2209      C2214   1.409       .  A
C2210      C2211   1.413       .  A
C2210      N2215   1.437       .  S
C2211      C2212   1.401       .  A
C2211      H2216   1.083       .  S
C2212      C2217   1.478       .  S
C2212      C2213   1.405       .  A
C2213      C2214   1.399       .  A
C2213      N2218   1.439       .  S
C2214      H2219   1.083       .  S
N2215      H2235   1.046       .  S
N2215      H2236   1.046       .  S
C2217      C2220   1.401       .  A
C2217      C2224   1.411       .  A
N2218      H2233   1.046       .  S
N2218      H2234   1.045       .  S
C2220      C2221   1.402       .  A
C2220      H2225   1.084       .  S
C2221      C2222   1.410       .  A
C2221      N2226   1.439       .  S
C2222      C2223   1.403       .  A
C2223      C2224   1.409       .  A
C2223      H2227   1.084       .  S
C2224      N2228   1.437       .  S
N2226      H2229   1.046       .  S
N2226      H2230   1.046       .  S
N2228      H2231   1.046       .  S
N2228      H2232   1.045       .  S
C2237      C2238   1.412       .  A
C2237      C2242   1.405       .  A
C2238      C2239   1.405       .  A
C2238      N2243   1.433       .  S
C2239      C2240   1.404       .  A
C2239      H2244   1.084       .  S
C2240      C2245   1.489       .  S
C2240      C2241   1.412       .  A
C2241      C2242   1.407       .  A
C2241      N2246   1.438       .  S
C2242      H2247   1.083       .  S
N2243      H2263   1.046       .  S
N2243      H2264   1.046   1_545  S
C2245      C2248   1.403       .  A
C2245      C2252   1.409       .  A
N2246      H2261   1.046       .  S
N2246      H2262   1.046       .  S
C2248      C2249   1.410       .  A
C2248      H2253   1.084       .  S
C2249      C2250   1.419       .  A
C2249      N2254   1.437       .  S
C2250      C2251   1.410       .  A
C2251      C2252   1.405       .  A
C2251      H2255   1.083       .  S
C2252      N2256   1.439       .  S
N2254      H2257   1.046       .  S
N2254      H2258   1.046       .  S
N2256      H2259   1.046       .  S
N2256      H2260   1.046       .  S
C2265      C2266   1.410       .  A
C2265      C2270   1.403       .  A
C2266      C2267   1.398       .  A
C2266      N2271   1.433       .  S
C2267      C2268   1.406       .  A
C2267      H2272   1.084       .  S
C2268      C2273   1.486       .  S
C2268      C2269   1.412       .  A
C2269      C2270   1.406       .  A
C2269      N2274   1.437       .  S
C2270      H2275   1.084       .  S
N2271      H2291   1.045       .  S
N2271      H2292   1.046       .  S
C2273      C2276   1.402       .  A
C2273      C2280   1.413       .  A
N2274      H2289   1.046       .  S
N2274      H2290   1.046       .  S
C2276      C2277   1.399       .  A
C2276      H2281   1.084       .  S
C2277      C2278   1.411       .  A
C2277      N2282   1.433       .  S
C2278      C2279   1.405       .  A
C2279      C2280   1.409       .  A
C2279      H2283   1.083       .  S
C2280      N2284   1.437       .  S
N2282      H2285   1.046       .  S
N2282      H2286   1.046       .  S
N2284      H2287   1.046       .  S
N2284      H2288   1.046       .  S
C2293      C2294   1.418       .  A
C2293      C2298   1.409       .  A
C2294      C2295   1.407       .  A
C2294      N2299   1.438       .  S
C2295      C2296   1.402       .  A
C2295      H2300   1.084       .  S
C2296      C2301   1.480       .  S
C2296      C2297   1.409       .  A
C2297      C2298   1.396       .  A
C2297      N2302   1.433       .  S
C2298      H2303   1.084       .  S
N2299      H2319   1.046       .  S
N2299      H2320   1.046       .  S
C2301      C2304   1.404       .  A
C2301      C2308   1.409       .  A
N2302      H2317   1.044       .  S
N2302      H2318   1.046       .  S
C2304      C2305   1.409       .  A
C2304      H2309   1.083       .  S
C2305      C2306   1.411       .  A
C2305      N2310   1.437   1_655  S
C2306      C2307   1.404       .  A
C2307      C2308   1.400       .  A
C2307      H2311   1.084       .  S
C2308      N2312   1.439       .  S
N2310      H2313   1.046       .  S
N2310      H2314   1.046       .  S
N2312      H2315   1.046       .  S
N2312      H2316   1.046       .  S
C2321      C2322   1.418       .  A
C2321      C2326   1.409       .  A
C2322      C2323   1.408       .  A
C2322      N2327   1.438       .  S
C2323      C2324   1.402       .  A
C2323      H2328   1.084       .  S
C2324      C2329   1.483       .  S
C2324      C2325   1.407       .  A
C2325      C2326   1.404       .  A
C2325      N2330   1.438       .  S
C2326      H2331   1.084       .  S
N2327      H2347   1.046       .  S
N2327      H2348   1.046       .  S
C2329      C2332   1.403       .  A
C2329      C2336   1.408       .  A
N2330      H2345   1.046       .  S
N2330      H2346   1.046       .  S
C2332      C2333   1.404       .  A
C2332      H2337   1.084       .  S
C2333      C2334   1.414   1_545  A
C2333      N2338   1.438       .  S
C2334      C2335   1.407       .  A
C2335      C2336   1.406   1_565  A
C2335      H2339   1.084       .  S
C2336      N2340   1.437   1_545  S
N2338      H2341   1.046       .  S
N2338      H2342   1.045       .  S
N2340      H2343   1.046       .  S
N2340      H2344   1.046       .  S
C2349      C2350   1.409       .  A
C2349      C2354   1.402       .  A
C2350      C2351   1.410       .  A
C2350      N2355   1.437       .  S
C2351      C2352   1.405       .  A
C2351      H2356   1.084       .  S
C2352      C2357   1.483       .  S
C2352      C2353   1.410       .  A
C2353      C2354   1.403       .  A
C2353      N2358   1.438       .  S
C2354      H2359   1.084       .  S
N2355      H2375   1.045       .  S
N2355      H2376   1.046       .  S
C2357      C2360   1.403       .  A
C2357      C2364   1.410       .  A
N2358      H2373   1.046       .  S
N2358      H2374   1.046       .  S
C2360      C2361   1.409       .  A
C2360      H2365   1.084       .  S
C2361      C2362   1.412       .  A
C2361      N2366   1.437       .  S
C2362      C2363   1.403       .  A
C2363      C2364   1.405       .  A
C2363      H2367   1.084       .  S
C2364      N2368   1.438       .  S
N2366      H2369   1.046       .  S
N2366      H2370   1.045       .  S
N2368      H2371   1.046       .  S
N2368      H2372   1.046       .  S
C2377      C2378   1.420       .  A
C2377      C2382   1.408       .  A
C2378      C2379   1.406       .  A
C2378      N2383   1.438       .  S
C2379      C2380   1.402       .  A
C2379      H2384   1.084       .  S
C2380      C2385   1.489       .  S
C2380      C2381   1.411       .  A
C2381      C2382   1.406       .  A
C2381      N2386   1.438       .  S
C2382      H2387   1.083       .  S
N2383      H2403   1.046       .  S
N2383      H2404   1.046       .  S
C2385      C2388   1.404       .  A
C2385      C2392   1.414       .  A
N2386      H2401   1.046       .  S
N2386      H2402   1.046       .  S
C2388      C2389   1.407       .  A
C2388      H2393   1.084       .  S
C2389      C2390   1.413       .  A
C2389      N2394   1.437       .  S
C2390      C2391   1.402       .  A
C2391      C2392   1.405       .  A
C2391      H2395   1.084       .  S
C2392      N2396   1.438       .  S
N2394      H2397   1.046       .  S
N2394      H2398   1.046   1_655  S
N2396      H2399   1.046       .  S
N2396      H2400   1.046       .  S
C2405      C2406   1.410       .  A
C2405      C2410   1.401       .  A
C2406      C2407   1.407       .  A
C2406      N2411   1.437       .  S
C2407      C2408   1.406       .  A
C2407      H2412   1.084       .  S
C2408      C2413   1.481       .  S
C2408      C2409   1.411       .  A
C2409      C2410   1.397       .  A
C2409      N2414   1.439       .  S
C2410      H2415   1.084       .  S
N2411      H2431   1.046       .  S
N2411      H2432   1.046       .  S
C2413      C2416   1.404       .  A
C2413      C2420   1.409       .  A
N2414      H2429   1.046       .  S
N2414      H2430   1.046       .  S
C2416      C2417   1.404       .  A
C2416      H2421   1.084       .  S
C2417      C2418   1.412       .  A
C2417      N2422   1.438       .  S
C2418      C2419   1.407       .  A
C2419      C2420   1.400       .  A
C2419      H2423   1.084       .  S
C2420      N2424   1.439       .  S
N2422      H2425   1.046       .  S
N2422      H2426   1.046       .  S
N2424      H2427   1.046       .  S
N2424      H2428   1.046       .  S
C2433      C2434   1.415       .  A
C2433      C2438   1.404       .  A
C2434      C2435   1.406       .  A
C2434      N2439   1.439       .  S
C2435      C2436   1.402       .  A
C2435      H2440   1.084       .  S
C2436      C2441   1.483       .  S
C2436      C2437   1.410       .  A
C2437      C2438   1.405       .  A
C2437      N2442   1.437       .  S
C2438      H2443   1.084       .  S
N2439      H2459   1.046       .  S
N2439      H2460   1.046       .  S
C2441      C2444   1.401       .  A
C2441      C2448   1.412       .  A
N2442      H2457   1.046       .  S
N2442      H2458   1.046       .  S
C2444      C2445   1.397       .  A
C2444      H2449   1.084       .  S
C2445      C2446   1.409       .  A
C2445      N2450   1.434       .  S
C2446      C2447   1.404       .  A
C2447      C2448   1.411       .  A
C2447      H2451   1.084       .  S
C2448      N2452   1.437       .  S
N2450      H2453   1.046       .  S
N2450      H2454   1.046       .  S
N2452      H2455   1.046       .  S
N2452      H2456   1.046       .  S
C2461      C2462   1.412       .  A
C2461      C2466   1.407       .  A
C2462      C2463   1.407       .  A
C2462      N2467   1.437       .  S
C2463      C2464   1.404       .  A
C2463      H2468   1.084       .  S
C2464      C2469   1.485       .  S
C2464      C2465   1.410       .  A
C2465      C2466   1.406       .  A
C2465      N2470   1.438       .  S
C2466      H2471   1.084       .  S
N2467      H2487   1.046       .  S
N2467      H2488   1.046       .  S
C2469      C2472   1.404       .  A
C2469      C2476   1.411       .  A
N2470      H2485   1.046       .  S
N2470      H2486   1.046       .  S
C2472      C2473   1.409   1_565  A
C2472      H2477   1.084   1_565  S
C2473      C2474   1.414       .  A
C2473      N2478   1.438       .  S
C2474      C2475   1.403   1_545  A
C2475      C2476   1.403       .  A
C2475      H2479   1.084       .  S
C2476      N2480   1.438       .  S
N2478      H2481   1.046       .  S
N2478      H2482   1.046       .  S
N2480      H2483   1.046       .  S
N2480      H2484   1.046       .  S
C2489      C2490   1.411       .  A
C2489      C2494   1.403       .  A
C2490      C2491   1.407       .  A
C2490      N2495   1.437       .  S
C2491      C2492   1.402       .  A
C2491      H2496   1.084       .  S
C2492      C2497   1.472       .  S
C2492      C2493   1.407       .  A
C2493      C2494   1.399       .  A
C2493      N2498   1.439       .  S
C2494      H2499   1.084       .  S
N2495      H2515   1.045       .  S
N2495      H2516   1.046       .  S
C2497      C2500   1.402       .  A
C2497      C2504   1.406       .  A
N2498      H2513   1.046       .  S
N2498      H2514   1.046       .  S
C2500      C2501   1.408       .  A
C2500      H2505   1.084       .  S
C2501      C2502   1.414       .  A
C2501      N2506   1.437       .  S
C2502      C2503   1.405       .  A
C2503      C2504   1.398       .  A
C2503      H2507   1.083       .  S
C2504      N2508   1.439       .  S
N2506      H2509   1.046       .  S
N2506      H2510   1.045       .  S
N2508      H2511   1.046       .  S
N2508      H2512   1.046       .  S
C2517      C2518   1.412       .  A
C2517      C2522   1.407       .  A
C2518      C2519   1.408       .  A
C2518      N2523   1.437       .  S
C2519      C2520   1.407       .  A
C2519      H2524   1.084       .  S
C2520      C2525   1.488       .  S
C2520      C2521   1.410       .  A
C2521      C2522   1.402       .  A
C2521      N2526   1.439       .  S
C2522      H2527   1.083       .  S
N2523      H2543   1.046       .  S
N2523      H2544   1.046       .  S
C2525      C2528   1.408       .  A
C2525      C2532   1.411       .  A
N2526      H2541   1.046       .  S
N2526      H2542   1.046       .  S
C2528      C2529   1.410       .  A
C2528      H2533   1.083       .  S
C2529      C2530   1.412       .  A
C2529      N2534   1.437       .  S
C2530      C2531   1.405       .  A
C2531      C2532   1.399       .  A
C2531      H2535   1.084       .  S
C2532      N2536   1.439       .  S
N2534      H2537   1.046       .  S
N2534      H2538   1.045       .  S
N2536      H2539   1.046       .  S
N2536      H2540   1.046       .  S
