geometry optimzed in LAMMPS
_audit_creation_date              2020-11-30 
_audit_creation_method            'lammps2cif' 
_symmetry_space_group_name_H-M    'P1' 
_symmetry_Int_Tables_number       1 
_symmetry_cell_setting            triclinic 
loop_ 
_symmetry_equiv_pos_as_xyz 
  x,y,z 
_cell_length_a                    56.67283524 
_cell_length_b                    56.543308134479396 
_cell_length_c                    33.3501980572013 
_cell_angle_alpha                 89.8824337066809 
_cell_angle_beta                  90.01733392365253 
_cell_angle_gamma                 120.11566616758797 
loop_ 
_atom_site_label 
_atom_site_type_symbol 
_atom_site_fract_x 
_atom_site_fract_y 
_atom_site_fract_z 
_atom_site_charge 
Fe1        Fe  0.35056850  0.42454439  0.12330202     1.65800
Fe2        Fe  0.29109945  0.39441466  0.17553046     1.73200
Fe3        Fe  0.29043070  0.39222645  0.07368911     1.54400
O4          O  0.31748370  0.42827367  0.04386884    -0.81900
O5          O  0.26773533  0.35371725  0.16108630    -0.80200
O6          O  0.35066429  0.45389009  0.08679378    -0.84400
O7          O  0.35356316  0.40363822  0.07388547    -0.79200
O8          O  0.26749645  0.40992457  0.08828135    -0.81000
O9          O  0.31847020  0.38500935  0.20278430    -0.83800
C10         C  0.33696430  0.38306616  0.05317866     0.97000
C11         C  0.33782395  0.45103453  0.05436614     1.04400
O12         O  0.31064514  0.40365203  0.12432326    -1.12700
O13         O  0.31228109  0.43421472  0.19621205    -0.75200
O14         O  0.35383261  0.44861656  0.17216140    -0.78700
O15         O  0.31137583  0.37321747  0.05483690    -0.79400
C16         C  0.33769484  0.45121267  0.19574347     0.95900
O17         O  0.35337512  0.39703455  0.16053699    -0.77300
O18         O  0.26112615  0.40217871  0.15390686    -0.82500
C19         C  0.25463775  0.34231973  0.12942821     0.98500
C20         C  0.25520356  0.40900827  0.12054100     1.04400
O21         O  0.26021125  0.35484277  0.09599561    -0.78200
C22         C  0.34035447  0.38552687  0.19240708     1.02700
Fe23       Fe  0.07258267  0.42624912  0.12441308     1.65800
Fe24       Fe  0.10320463  0.39680942  0.17520662     1.73200
Fe25       Fe  0.10194786  0.39554211  0.07302734     1.54400
O26         O  0.06237729  0.37816141  0.05190163    -0.81900
O27         O  0.14051776  0.40429293  0.15394192    -0.80200
O28         O  0.04726005  0.40435316  0.07730058    -0.84400
O29         O  0.10003133  0.45573979  0.08561007    -0.79200
O30         O  0.09280301  0.35737643  0.09388230    -0.81000
O31         O  0.12190357  0.43662093  0.19582204    -0.83800
C32         C  0.11173893  0.45385516  0.05426787     0.97000
C33         C  0.04455166  0.38542980  0.05396983     1.04400
O34         O  0.09266328  0.40625765  0.12414849    -1.12700
O35         O  0.06724337  0.38765198  0.20422667    -0.75200
O36         O  0.04326311  0.39853897  0.16295708    -0.78700
O37         O  0.11241541  0.43234662  0.04553802    -0.79400
C38         C  0.04544849  0.38749709  0.19483784     0.95900
O39         O  0.09451638  0.45096329  0.17209294    -0.77300
O40         O  0.08575530  0.35611747  0.15963191    -0.82500
C41         C  0.15362174  0.41058180  0.12115222     0.98500
C42         C  0.08615876  0.34463698  0.12714759     1.04400
O43         O  0.14266921  0.41140017  0.08828500    -0.78200
C44         C  0.11358890  0.45369552  0.19512582     1.02700
Fe45       Fe  0.06986750  0.14543329  0.12705150     1.65800
Fe46       Fe  0.10070766  0.20571605  0.07568366     1.73200
Fe47       Fe  0.09955575  0.20568521  0.17799448     1.54400
O48         O  0.06004523  0.18414291  0.19911114    -0.81900
O49         O  0.13877038  0.23476681  0.09637013    -0.80200
O50         O  0.04501748  0.14249954  0.17431556    -0.84400
O51         O  0.09712996  0.14348503  0.16596708    -0.79200
O52         O  0.09147053  0.23525057  0.15720635    -0.81000
O53         O  0.11806625  0.18374095  0.05409454    -0.83800
C54         C  0.10812875  0.15679335  0.19777358     0.97000
C55         C  0.04259511  0.15882195  0.19773824     1.04400
O56         O  0.09004433  0.18562035  0.12688800    -1.12700
O57         O  0.06412222  0.17930028  0.04774301    -0.75200
O58         O  0.04058352  0.14349234  0.08816811    -0.78700
O59         O  0.10887335  0.17897299  0.20650380    -0.79400
C60         C  0.04268244  0.15700626  0.05658697     0.95900
O61         O  0.09173920  0.14228684  0.07987067    -0.77300
O62         O  0.08468978  0.23018477  0.09149622    -0.82500
C63         C  0.15163431  0.24092291  0.12939445     0.98500
C64         C  0.08515979  0.24186056  0.12421042     1.04400
O65         O  0.14019961  0.22947117  0.16225136    -0.78200
C66         C  0.11013650  0.15841319  0.05573917     1.02700
Fe67       Fe  0.42556571  0.35188823  0.37457305     1.65800
Fe68       Fe  0.39568831  0.29271419  0.32175851     1.73200
Fe69       Fe  0.39434109  0.29094781  0.42415493     1.54400
O70         O  0.43326646  0.31243530  0.44810239    -0.81900
O71         O  0.35717398  0.26315589  0.34023488    -0.80200
O72         O  0.44862860  0.35438672  0.42406211    -0.84400
O73         O  0.39680802  0.35309735  0.41074148    -0.79200
O74         O  0.40369906  0.26191519  0.40360773    -0.81000
O75         O  0.37853833  0.31479900  0.29997179    -0.83800
C76         C  0.38437681  0.33958022  0.44181877     0.97000
C77         C  0.45040648  0.33787702  0.44795188     1.04400
O78         O  0.40521149  0.31177851  0.37356312    -1.12700
O79         O  0.43286561  0.31973932  0.29573425    -0.75200
O80         O  0.45613037  0.35406188  0.33829209    -0.78700
O81         O  0.38332191  0.31722526  0.45128821    -0.79400
C82         C  0.45455036  0.34129218  0.30619334     0.95900
O83         O  0.40564400  0.35599502  0.32542147    -0.77300
O84         O  0.41167104  0.26843823  0.33802583    -0.82500
C85         C  0.34350944  0.25627226  0.37261235     0.98500
C86         C  0.41066390  0.25613077  0.37039638     1.04400
O87         O  0.35424761  0.26697961  0.40603335    -0.78200
C88         C  0.38717453  0.34026093  0.30118131     1.02700
Fe89       Fe  0.42260555  0.07095968  0.37691694     1.65800
Fe90       Fe  0.39360108  0.10260891  0.42777366     1.73200
Fe91       Fe  0.39255766  0.10115781  0.32487241     1.54400
O92         O  0.43057509  0.11476301  0.29952493    -0.81900
O93         O  0.35470137  0.09155454  0.40980973    -0.80200
O94         O  0.45034214  0.09576056  0.33451428    -0.84400
O95         O  0.39834202  0.04382090  0.33314544    -0.79200
O96         O  0.40576709  0.14087737  0.34221115    -0.81000
O97         O  0.37824513  0.06410998  0.45301921    -0.83800
C98         C  0.38231317  0.04315690  0.30603598     0.97000
C99         C  0.45032173  0.11069124  0.30611321     1.04400
O100        O  0.40293012  0.09158698  0.37651593    -1.12700
O101        O  0.43107262  0.11545429  0.45355746    -0.75200
O102        O  0.45012289  0.09514645  0.42060760    -0.78700
O103        O  0.37758474  0.06258990  0.30044421    -0.79400
C104        C  0.45033939  0.11056468  0.44836712     0.95900
O105        O  0.39685559  0.04353126  0.41914812    -0.77300
O106        O  0.40771401  0.14241563  0.40878721    -0.82500
C107        C  0.34202478  0.08742492  0.37696573     0.98500
C108        C  0.41029543  0.15386867  0.37497857     1.04400
O109        O  0.35335275  0.08910611  0.34341209    -0.78200
C110        C  0.38144366  0.04374020  0.44655686     1.02700
Fe111      Fe  0.14473744  0.07326575  0.37701449     1.65800
Fe112      Fe  0.20569518  0.10521718  0.42592374     1.73200
Fe113      Fe  0.20374062  0.10274004  0.32384421     1.54400
O114        O  0.18212354  0.06285492  0.30380457    -0.81900
O115        O  0.23475360  0.14300203  0.40351222    -0.80200
O116        O  0.14094660  0.04812959  0.32954715    -0.84400
O117        O  0.14182845  0.10039293  0.33865073    -0.79200
O118        O  0.23359900  0.09510704  0.34373145    -0.81000
O119        O  0.18419438  0.12320504  0.44741291    -0.83800
C120        C  0.15462413  0.11127223  0.30635964     0.97000
C121        C  0.15682668  0.04547279  0.30556643     1.04400
O122        O  0.18476026  0.09378284  0.37562816    -1.12700
O123        O  0.17957884  0.06898612  0.45545620    -0.75200
O124        O  0.14410611  0.04432770  0.41527602    -0.78700
O125        O  0.17652506  0.11176475  0.29686752    -0.79400
C126        C  0.15775374  0.04701255  0.44683364     0.95900
O127        O  0.14232719  0.09516893  0.42471803    -0.77300
O128        O  0.22955037  0.08852818  0.40958375    -0.82500
C129        C  0.24027537  0.15532162  0.36991923     0.98500
C130        C  0.24063684  0.08882138  0.37627863     1.04400
O131        O  0.22758424  0.14357114  0.33806996    -0.78200
C132        C  0.15875683  0.11461952  0.44715193     1.02700
C133        C  0.26375961  0.08324178  0.37545795    -0.00400
C134        C  0.27459243  0.08053044  0.41196623    -0.12200
C135        C  0.29909942  0.08012145  0.41336431     0.01900
C136        C  0.31348493  0.08232030  0.37743724    -0.00500
C137        C  0.30139679  0.08260692  0.34078463    -0.12200
C138        C  0.27702488  0.08317642  0.33935712     0.01800
H139        H  0.26455911  0.07996350  0.43996368     0.14700
H140        H  0.31167653  0.08374136  0.31278904     0.14700
C141        C  0.26706533  0.08483372  0.30014106     0.36400
C142        C  0.30918901  0.07836940  0.45239602     0.36300
N143        N  0.25927900  0.08632751  0.26867343    -0.44000
N144        N  0.31727335  0.07705469  0.48371159    -0.44000
C145        C  0.31440289  0.23370032  0.37104023    -0.00400
C146        C  0.30414752  0.21971840  0.33457946    -0.12200
C147        C  0.27900235  0.19537810  0.33261973     0.01900
C148        C  0.26355787  0.18398698  0.36800509    -0.00500
C149        C  0.27251098  0.19928155  0.40360801    -0.12200
C150        C  0.29730216  0.22409087  0.40527644     0.01800
H151        H  0.31630464  0.22713897  0.30748487     0.14700
H152        H  0.26042631  0.19147031  0.43069158     0.14700
C153        C  0.30444814  0.23896584  0.44262816     0.36400
C154        C  0.27057379  0.18205741  0.29410812     0.36300
N155        N  0.30994820  0.25096063  0.47249242    -0.44000
N156        N  0.26387719  0.17161934  0.26309293    -0.44000
C157        C  0.41666133  0.18294013  0.37317757    -0.00400
C158        C  0.41284719  0.19291596  0.33647870    -0.12200
C159        C  0.41243141  0.21742066  0.33422615     0.01900
C160        C  0.41630328  0.23303783  0.36932158    -0.00500
C161        C  0.42278148  0.22447589  0.40522471    -0.12200
C162        C  0.42308497  0.19983595  0.40748490     0.01800
H163        H  0.40838079  0.18069021  0.30951781     0.14700
H164        H  0.42661670  0.23658009  0.43218992     0.14700
C165        C  0.42930585  0.19228248  0.44576546     0.36400
C166        C  0.40566315  0.22451912  0.29596005     0.36300
N167        N  0.43429836  0.18633533  0.47652925    -0.44000
N168        N  0.40012325  0.23003342  0.26527435    -0.44000
C169        C  0.01937153  0.14602778  0.02844701    -0.00400
C170        C  0.49291733  0.13565784  0.04364940    -0.12200
C171        C  0.47026272  0.12447371  0.01806570     0.01900
C172        C  0.47383697  0.12304116  0.47630767     0.03700
C173        C  0.00030580  0.13314901  0.46119253    -0.12200
C174        C  0.02300195  0.14481567  0.48672555     0.01800
H175        H  0.48994287  0.13633939  0.07573059     0.14700
H176        H  0.00328288  0.13202915  0.42922261     0.14700
C177        C  0.04968872  0.15432400  0.46956521     0.36400
C178        C  0.44350510  0.11352892  0.03573699     0.36300
N179        N  0.07110007  0.16195071  0.45593071    -0.44000
N180        N  0.42208267  0.10475459  0.04994519    -0.44000
C181        C  0.01885781  0.14726945  0.22534293    -0.00400
C182        C  0.00820167  0.12015960  0.23849324    -0.12200
C183        C  0.48612167  0.10807937  0.26492264     0.01900
C184        C  0.47406332  0.12315340  0.27879130    -0.00500
C185        C  0.48439859  0.15014501  0.26540165    -0.12200
C186        C  0.00673782  0.16235831  0.23911744     0.01800
H187        H  0.01726497  0.10829542  0.22824725     0.14700
H188        H  0.47508130  0.16176331  0.27567815     0.14700
C189        C  0.01618061  0.19000648  0.22580718     0.36400
C190        C  0.47552720  0.07977521  0.27595881     0.36300
N191        N  0.02382500  0.21215904  0.21502768    -0.44000
N192        N  0.46694307  0.05710542  0.28481108    -0.44000
C193        C  0.14350466  0.12358312  0.27825565    -0.00400
C194        C  0.12793183  0.13453083  0.29353957    -0.12200
C195        C  0.11666730  0.14592434  0.26797496     0.01900
C196        C  0.12042743  0.14594548  0.22605937    -0.00500
C197        C  0.13584307  0.13493703  0.21072694    -0.12200
C198        C  0.14766149  0.12414371  0.23625900     0.01800
H199        H  0.12464438  0.13432413  0.32560944     0.14700
H200        H  0.13886948  0.13498877  0.17859382     0.14700
C201        C  0.16336436  0.11325249  0.21814849     0.36400
C202        C  0.10056141  0.15655056  0.28550830     0.36300
N203        N  0.17609075  0.10471175  0.20359800    -0.44000
N204        N  0.08771944  0.16510234  0.29963253    -0.44000
C205        C  0.14710419  0.12672356  0.47478796    -0.00400
C206        C  0.11999691  0.11011749  0.48759709    -0.12200
C207        C  0.10758288  0.11999718  0.51353053     0.01900
C208        C  0.12253506  0.14709275  0.02810775    -0.00500
C209        C  0.14951845  0.16391215  0.01486989    -0.12200
C210        C  0.16183846  0.15408167  0.98835796     0.01800
H211        H  0.10824215  0.08916049  0.47713682     0.14700
H212        H  0.16105741  0.18492937  0.02515375     0.14700
C213        C  0.18901022  0.17292895  0.97414482     0.36400
C214        C  0.07903470  0.10219773  0.52273758     0.36300
N215        N  0.21070518  0.18821177  0.96260904    -0.44000
N216        N  0.05612227  0.08792568  0.52974260    -0.44000
C217        C  0.12479564  0.47758189  0.02647356    -0.00400
C218        C  0.13561429  0.50408927  0.54204901    -0.12200
C219        C  0.14719458  0.52702655  0.51682867     0.01900
C220        C  0.14751525  0.02362326  0.47490546    -0.00500
C221        C  0.13684813  0.99722250  0.95928674    -0.12200
C222        C  0.12588446  0.97431960  0.98451258     0.01800
H223        H  0.13505068  0.50694650  0.57414947     0.14700
H224        H  0.13710593  0.99446251  0.92710923     0.14700
C225        C  0.11518607  0.94776130  0.96615186     0.36400
C226        C  0.15756843  0.55369394  0.53466316     0.36300
N227        N  0.10678497  0.92652271  0.95139113    -0.44000
N228        N  0.16594211  0.57506323  0.54896701    -0.44000
C229        C  0.12540155  0.47714401  0.22335992    -0.00400
C230        C  0.10801760  0.48573123  0.23933473    -0.12200
C231        C  0.11755675  0.00748476  0.26639903     0.01900
C232        C  0.14533909  0.02144024  0.27817543    -0.00500
C233        C  0.16275641  0.01283854  0.26210713    -0.12200
C234        C  0.15308010  0.49092392  0.23509045     0.01800
H235        H  0.08667494  0.47525780  0.23075156     0.14700
H236        H  0.18411548  0.02334867  0.27051887     0.14700
C237        C  0.17233307  0.48396878  0.21853235     0.36400
C238        C  0.09835100  0.01541256  0.28022898     0.36300
N239        N  0.18797289  0.47868521  0.20521243    -0.44000
N240        N  0.08284988  0.02164122  0.29115980    -0.44000
C241        C  0.47832489  0.35232563  0.27861562    -0.00400
C242        C  0.47333294  0.34891492  0.23711851    -0.12200
C243        C  0.49475439  0.36001639  0.20934568     0.01900
C244        C  0.02201116  0.37454435  0.22290670    -0.00500
C245        C  0.02708810  0.37731212  0.26440596    -0.12200
C246        C  0.50561381  0.36664523  0.29222324     0.01800
H247        H  0.45250864  0.33799694  0.22619179     0.14700
H248        H  0.04794715  0.38840786  0.27518611     0.14700
C249        C  0.01224367  0.37032628  0.33441337     0.36400
C250        C  0.48812366  0.35570086  0.16717359     0.36300
N251        N  0.01759680  0.37334521  0.36820535    -0.44000
N252        N  0.48278337  0.35226493  0.13339962    -0.44000
C253        C  0.01976695  0.37192704  0.02787628    -0.00400
C254        C  0.00421740  0.38482789  0.02261462    -0.12200
C255        C  0.48127838  0.37367893  0.49765286     0.01900
C256        C  0.47342039  0.34913621  0.47675056    -0.00500
C257        C  0.48820528  0.33564775  0.48282333    -0.12200
C258        C  0.01116256  0.34672282  0.00800100     0.01800
H259        H  0.01001678  0.40390073  0.03791938     0.14700
H260        H  0.48208638  0.31659292  0.46723839     0.14700
C261        C  0.02515967  0.33149887  0.01298291     0.36400
C262        C  0.46550378  0.38729825  0.49529584     0.36300
N263        N  0.03637539  0.31928147  0.01696498    -0.44000
N264        N  0.45275379  0.39808539  0.49370585    -0.44000
C265        C  0.08027823  0.31575443  0.12779907    -0.00400
C266        C  0.07706631  0.30221730  0.09106952    -0.12200
C267        C  0.07677160  0.27730534  0.08901309     0.01900
C268        C  0.07976152  0.26518627  0.12443458    -0.00500
C269        C  0.08049077  0.27752377  0.16142813    -0.12200
C270        C  0.08086279  0.30243514  0.16348587     0.01800
H271        H  0.07592319  0.31167040  0.06340942     0.14700
H272        H  0.08209712  0.26838000  0.18912919     0.14700
C273        C  0.08359577  0.31435846  0.20270384     0.36400
C274        C  0.07451111  0.26553851  0.04981503     0.36300
N275        N  0.08584133  0.32384052  0.23418575    -0.44000
N276        N  0.07267930  0.25619012  0.01833331    -0.44000
C277        C  0.34912128  0.47470974  0.22415557    -0.00400
C278        C  0.33273824  0.48538938  0.23731008    -0.12200
C279        C  0.34288866  0.00752944  0.26409743     0.01900
C280        C  0.36985786  0.01921494  0.27870451    -0.00500
C281        C  0.38595446  0.00816205  0.26628765    -0.12200
C282        C  0.37601726  0.48631672  0.23933404     0.01800
H283        H  0.31197595  0.47655563  0.22642415     0.14700
H284        H  0.40667338  0.01690484  0.27735167     0.14700
C285        C  0.39380021  0.47583752  0.22894836     0.36400
C286        C  0.32492045  0.01718362  0.27721152     0.36300
N287        N  0.40816300  0.46756913  0.22070774    -0.44000
N288        N  0.31048430  0.02485275  0.28783298    -0.44000
C289        C  0.36767754  0.01958785  0.47323370    -0.00400
C290        C  0.36759703  0.02378155  0.01471687    -0.12200
C291        C  0.35783144  0.00182001  0.04168453     0.01900
C292        C  0.34729506  0.47488333  0.02715099    -0.00500
C293        C  0.34627784  0.47060647  0.48552925    -0.12200
C294        C  0.35655118  0.49262709  0.45862812     0.01800
H295        H  0.37610861  0.04441325  0.02622312     0.14700
H296        H  0.33811249  0.45002968  0.47398653     0.14700
C297        C  0.35514688  0.48693538  0.41620249     0.36400
C298        C  0.35868022  0.00755298  0.08402390     0.36300
N299        N  0.35398874  0.48232176  0.38223331    -0.44000
N300        N  0.35943111  0.01219323  0.11793616    -0.44000
C301        C  0.37127730  0.35071922  0.46876802    -0.00400
C302        C  0.34969033  0.33282367  0.49404612    -0.12200
C303        C  0.33783591  0.34275881  0.02132784     0.01900
C304        C  0.34814976  0.37116171  0.02463075    -0.00500
C305        C  0.36947224  0.38899282  0.99934613    -0.12200
C306        C  0.38072267  0.37913903  0.47118496     0.01800
H307        H  0.34200753  0.31102677  0.49248335     0.14700
H308        H  0.37713484  0.41079773  0.00121863     0.14700
C309        C  0.40231946  0.39897929  0.44588751     0.36400
C310        C  0.31571291  0.32350687  0.04644810     0.36300
N311        N  0.41951598  0.41486362  0.42547047    -0.44000
N312        N  0.29793218  0.30814402  0.06656349    -0.44000
C313        C  0.35190225  0.37328606  0.21944600    -0.00400
C314        C  0.37845542  0.38995232  0.23377164    -0.12200
C315        C  0.39031095  0.37977812  0.26038863     0.01900
C316        C  0.37543179  0.35211863  0.27311844    -0.00500
C317        C  0.34895606  0.33529649  0.25789119    -0.12200
C318        C  0.33712486  0.34566404  0.23137295     0.01800
H319        H  0.38996353  0.41115493  0.22424281     0.14700
H320        H  0.33737918  0.31397894  0.26680601     0.14700
C321        C  0.31034290  0.32734056  0.21539070     0.36400
C322        C  0.41809925  0.39809031  0.27279144     0.36300
N323        N  0.28898323  0.31258831  0.20230831    -0.44000
N324        N  0.44037299  0.41283364  0.28257690    -0.44000
C325        C  0.23206599  0.41464204  0.11939398    -0.00400
C326        C  0.22047761  0.41604054  0.15589068    -0.12200
C327        C  0.19610871  0.41663843  0.15722092     0.01900
C328        C  0.18216972  0.41545148  0.12123542    -0.00500
C329        C  0.19490485  0.41634419  0.08457580    -0.12200
C330        C  0.21961186  0.41617660  0.08327567     0.01800
H331        H  0.23007717  0.41586170  0.18395924     0.14700
H332        H  0.18503554  0.41610076  0.05657584     0.14700
C333        C  0.23101333  0.41675405  0.04429278     0.36400
C334        C  0.18591072  0.41790958  0.19636946     0.36300
N335        N  0.24024305  0.41739861  0.01307171    -0.44000
N336        N  0.17786317  0.41891249  0.22784242    -0.44000
C337        C  0.18054439  0.26373904  0.12999911    -0.00400
C338        C  0.19142849  0.27754726  0.16631148    -0.12200
C339        C  0.21621442  0.30233889  0.16743392     0.01900
C340        C  0.23102840  0.31385142  0.13153565    -0.00500
C341        C  0.22128336  0.29885485  0.09582958    -0.12200
C342        C  0.19645869  0.27409741  0.09471904     0.01800
H343        H  0.17977043  0.26989109  0.19374542     0.14700
H344        H  0.23266189  0.30692732  0.06825248     0.14700
C345        C  0.18781966  0.26019241  0.05665157     0.36400
C346        C  0.22456212  0.31625696  0.20553215     0.36300
N347        N  0.18100374  0.24916346  0.02606054    -0.44000
N348        N  0.23108003  0.32732624  0.23612679    -0.44000
Fe349      Fe  0.35057935  0.42454513  0.62328612     1.65800
Fe350      Fe  0.29111722  0.39442700  0.67553103     1.73200
Fe351      Fe  0.29043584  0.39221841  0.57369372     1.54400
O352        O  0.31748894  0.42825536  0.54385243    -0.81900
O353        O  0.26774387  0.35372621  0.66110812    -0.80200
O354        O  0.35066511  0.45388600  0.58677567    -0.84400
O355        O  0.35356323  0.40363500  0.57386923    -0.79200
O356        O  0.26750826  0.40992481  0.58827477    -0.81000
O357        O  0.31848997  0.38501914  0.70277730    -0.83800
C358        C  0.33696067  0.38305346  0.55318267     0.97000
C359        C  0.33782321  0.45102135  0.55434578     1.04400
O360        O  0.31065617  0.40365398  0.62432068    -1.12700
O361        O  0.31230819  0.43423109  0.69619490    -0.75200
O362        O  0.35385885  0.44862258  0.67214778    -0.78700
O363        O  0.31137238  0.37319867  0.55485945    -0.79400
C364        C  0.33772330  0.45122388  0.69572752     0.95900
O365        O  0.35338790  0.39703500  0.66051833    -0.77300
O366        O  0.26114267  0.40219212  0.65390428    -0.82500
C367        C  0.25464431  0.34232502  0.62945316     0.98500
C368        C  0.25521584  0.40901260  0.62053294     1.04400
O369        O  0.26021639  0.35484404  0.59601799    -0.78200
C370        C  0.34036957  0.38552899  0.69239114     1.02700
Fe371      Fe  0.07258443  0.42624691  0.62441029     1.65800
Fe372      Fe  0.10321502  0.39681808  0.67520092     1.73200
Fe373      Fe  0.10194874  0.39554131  0.57302558     1.54400
O374        O  0.06237469  0.37815309  0.55191236    -0.81900
O375        O  0.14052872  0.40429979  0.65393022    -0.80200
O376        O  0.04727409  0.40436623  0.57727787    -0.84400
O377        O  0.10004052  0.45574252  0.58562815    -0.79200
O378        O  0.09281287  0.35738154  0.59388696    -0.81000
O379        O  0.12191422  0.43663128  0.69580632    -0.83800
C380        C  0.11173173  0.45385054  0.55427248     0.97000
C381        C  0.04455837  0.38543467  0.55395919     1.04400
O382        O  0.09266890  0.40626011  0.62414475    -1.12700
O383        O  0.06725116  0.38766133  0.70421737    -0.75200
O384        O  0.04326000  0.39852303  0.66292937    -0.78700
O385        O  0.11240167  0.43233981  0.54553387    -0.79400
C386        C  0.04544948  0.38749040  0.69481671     0.95900
O387        O  0.09450225  0.45095162  0.67211000    -0.77300
O388        O  0.08576537  0.35612615  0.65963583    -0.82500
C389        C  0.15362959  0.41058633  0.62113672     0.98500
C390        C  0.08616803  0.34464410  0.62715339     1.04400
O391        O  0.14267399  0.41140527  0.58827224    -0.78200
C392        C  0.11358472  0.45369405  0.69512940     1.02700
Fe393      Fe  0.06987363  0.14544357  0.62706760     1.65800
Fe394      Fe  0.10070885  0.20572361  0.57569937     1.73200
Fe395      Fe  0.09955937  0.20569682  0.67801144     1.54400
O396        O  0.06004965  0.18415680  0.69912226    -0.81900
O397        O  0.13877405  0.23477362  0.59638737    -0.80200
O398        O  0.04502872  0.14251206  0.67433429    -0.84400
O399        O  0.09714236  0.14350329  0.66597968    -0.79200
O400        O  0.09147636  0.23526234  0.65722328    -0.81000
O401        O  0.11806601  0.18374816  0.55410559    -0.83800
C402        C  0.10813543  0.15680912  0.69779022     0.97000
C403        C  0.04260402  0.15883495  0.69775216     1.04400
O404        O  0.09004814  0.18563032  0.62690405    -1.12700
O405        O  0.06411783  0.17930618  0.54776231    -0.75200
O406        O  0.04058427  0.14349611  0.58818515    -0.78700
O407        O  0.10887368  0.17898455  0.70652761    -0.79400
C408        C  0.04267902  0.15700925  0.55660408     0.95900
O409        O  0.09173948  0.14229359  0.57988272    -0.77300
O410        O  0.08469346  0.23019282  0.59151419    -0.82500
C411        C  0.15163786  0.24093177  0.62941286     0.98500
C412        C  0.08516452  0.24186998  0.62422703     1.04400
O413        O  0.14020287  0.22948176  0.66227035    -0.78200
C414        C  0.11013372  0.15841997  0.55574793     1.02700
Fe415      Fe  0.42557409  0.35189001  0.87455989     1.65800
Fe416      Fe  0.39569963  0.29271620  0.82174464     1.73200
Fe417      Fe  0.39434126  0.29095098  0.92414066     1.54400
O418        O  0.43326379  0.31243277  0.94810061    -0.81900
O419        O  0.35719069  0.26314911  0.84021649    -0.80200
O420        O  0.44863778  0.35438305  0.92404608    -0.84400
O421        O  0.39682223  0.35310818  0.91073778    -0.79200
O422        O  0.40369403  0.26191338  0.90359112    -0.81000
O423        O  0.37853908  0.31479104  0.79996322    -0.83800
C424        C  0.38438681  0.33959042  0.94181314     0.97000
C425        C  0.45040808  0.33787376  0.94794713     1.04400
O426        O  0.40521864  0.31178157  0.87355005    -1.12700
O427        O  0.43286838  0.31974561  0.79571016    -0.75200
O428        O  0.45613694  0.35406205  0.83827349    -0.78700
O429        O  0.38332476  0.31723110  0.95127655    -0.79400
C430        C  0.45455375  0.34129619  0.80616927     0.95900
O431        O  0.40564602  0.35598988  0.82540880    -0.77300
O432        O  0.41169605  0.26845422  0.83801575    -0.82500
C433        C  0.34351931  0.25627744  0.87258646     0.98500
C434        C  0.41067124  0.25613655  0.87038360     1.04400
O435        O  0.35425071  0.26699409  0.90600587    -0.78200
C436        C  0.38717603  0.34025306  0.80116974     1.02700
Fe437      Fe  0.42261701  0.07096538  0.87692849     1.65800
Fe438      Fe  0.39361407  0.10262107  0.92777368     1.73200
Fe439      Fe  0.39256677  0.10115698  0.82487478     1.54400
O440        O  0.43058873  0.11477736  0.79954175    -0.81900
O441        O  0.35471928  0.09157580  0.90980260    -0.80200
O442        O  0.45034545  0.09575810  0.83451549    -0.84400
O443        O  0.39835100  0.04381513  0.83316865    -0.79200
O444        O  0.40575580  0.14087244  0.84221294    -0.81000
O445        O  0.37825286  0.06412241  0.95302504    -0.83800
C446        C  0.38233637  0.04315780  0.80604063     0.97000
C447        C  0.45033029  0.11069680  0.80612311     1.04400
O448        O  0.40294043  0.09159153  0.87652052    -1.12700
O449        O  0.43108112  0.11546194  0.95355862    -0.75200
O450        O  0.45013756  0.09516261  0.92060446    -0.78700
O451        O  0.37761613  0.06259525  0.80043748    -0.79400
C452        C  0.45035087  0.11057815  0.94836513     0.95900
O453        O  0.39687674  0.04354773  0.91917529    -0.77300
O454        O  0.40773563  0.14242877  0.90878591    -0.82500
C455        C  0.34203664  0.08742820  0.87696097     0.98500
C456        C  0.41029844  0.15387224  0.87497463     1.04400
O457        O  0.35335681  0.08908738  0.84340783    -0.78200
C458        C  0.38146064  0.04375664  0.94657693     1.02700
Fe459      Fe  0.14475572  0.07327822  0.87701398     1.65800
Fe460      Fe  0.20571810  0.10523803  0.92590583     1.73200
Fe461      Fe  0.20375176  0.10274277  0.82382442     1.54400
O462        O  0.18212395  0.06285669  0.80379320    -0.81900
O463        O  0.23476983  0.14301851  0.90347750    -0.80200
O464        O  0.14095220  0.04813507  0.82955086    -0.84400
O465        O  0.14184408  0.10040347  0.83864588    -0.79200
O466        O  0.23360648  0.09510241  0.84370670    -0.81000
O467        O  0.18422270  0.12323195  0.94739305    -0.83800
C468        C  0.15464078  0.11128747  0.80635635     0.97000
C469        C  0.15682727  0.04547540  0.80556435     1.04400
O470        O  0.18477818  0.09379480  0.87561495    -1.12700
O471        O  0.17960533  0.06900971  0.95545787    -0.75200
O472        O  0.14413137  0.04434437  0.91528228    -0.78700
O473        O  0.17653943  0.11177638  0.79686078    -0.79400
C474        C  0.15778101  0.04703300  0.94684009     0.95900
O475        O  0.14235329  0.09518546  0.92471526    -0.77300
O476        O  0.22957201  0.08854873  0.90956552    -0.82500
C477        C  0.24029220  0.15533250  0.86988013     0.98500
C478        C  0.24065126  0.08882965  0.87625905     1.04400
O479        O  0.22760685  0.14357494  0.83803161    -0.78200
C480        C  0.15878421  0.11463985  0.94714157     1.02700
C481        C  0.26377487  0.08325173  0.87544503    -0.00400
C482        C  0.27461653  0.08056220  0.91195850    -0.12200
C483        C  0.29912512  0.08015761  0.91336228     0.01900
C484        C  0.31349921  0.08232901  0.87743406    -0.00500
C485        C  0.30140419  0.08259731  0.84077891    -0.12200
C486        C  0.27703467  0.08317138  0.83934662     0.01800
H487        H  0.26459091  0.08001319  0.93995528     0.14700
H488        H  0.31167818  0.08371678  0.81278418     0.14700
C489        C  0.26707507  0.08482291  0.80012788     0.36400
C490        C  0.30923166  0.07844734  0.95240130     0.36300
N491        N  0.25929039  0.08631411  0.76865770    -0.44000
N492        N  0.31733092  0.07716952  0.98372292    -0.44000
C493        C  0.31441201  0.23371075  0.87100837    -0.00400
C494        C  0.30415168  0.21974042  0.83454049    -0.12200
C495        C  0.27900460  0.19540243  0.83257587     0.01900
C496        C  0.26356784  0.18400073  0.86796457    -0.00500
C497        C  0.27252283  0.19928884  0.90357263    -0.12200
C498        C  0.29731339  0.22409676  0.90524540     0.01800
H499        H  0.31630495  0.22716949  0.80744351     0.14700
H500        H  0.26044051  0.19147294  0.93065784     0.14700
C501        C  0.30446186  0.23896440  0.94260344     0.36400
C502        C  0.27056293  0.18209990  0.79405353     0.36300
N503        N  0.30996510  0.25095459  0.97247191    -0.44000
N504        N  0.26385630  0.17167929  0.76302817    -0.44000
C505        C  0.41665898  0.18294161  0.87316402    -0.00400
C506        C  0.41280670  0.19289785  0.83647357    -0.12200
C507        C  0.41238868  0.21740095  0.83422127     0.01900
C508        C  0.41630275  0.23303959  0.86930547    -0.00500
C509        C  0.42281346  0.22449530  0.90519633    -0.12200
C510        C  0.42311491  0.19985409  0.90745824     0.01800
H511        H  0.40830956  0.18065675  0.80952348     0.14700
H512        H  0.42667588  0.23661479  0.93215148     0.14700
C513        C  0.42936613  0.19231642  0.94572838     0.36400
C514        C  0.40556611  0.22447203  0.79597584     0.36300
N515        N  0.43438214  0.18638265  0.97648511    -0.44000
N516        N  0.39998076  0.22996355  0.76530809    -0.44000
C517        C  0.01936441  0.14602533  0.52846245    -0.00400
C518        C  0.49290176  0.13560698  0.54366283    -0.12200
C519        C  0.47024665  0.12441671  0.51807752     0.01900
C520        C  0.47384834  0.12305818  0.97630269     0.03700
C521        C  0.00031137  0.13312001  0.96118670    -0.12200
C522        C  0.02300668  0.14478072  0.98671868     0.01800
H523        H  0.48992235  0.13625796  0.57574828     0.14700
H524        H  0.00328541  0.13196941  0.92922304     0.14700
C525        C  0.04968855  0.15424415  0.96956950     0.36400
C526        C  0.44348379  0.11342264  0.53575052     0.36300
N527        N  0.07109556  0.16183475  0.95594300    -0.44000
N528        N  0.42205691  0.10460746  0.54995977    -0.44000
C529        C  0.01886974  0.14728170  0.72535601    -0.00400
C530        C  0.00824060  0.12018476  0.73854693    -0.12200
C531        C  0.48615613  0.10809886  0.76497868     0.01900
C532        C  0.47407256  0.12315979  0.77880446    -0.00500
C533        C  0.48438025  0.15013768  0.76536842    -0.12200
C534        C  0.00672483  0.16235673  0.73908493     0.01800
H535        H  0.01732464  0.10833258  0.72833267     0.14700
H536        H  0.47504250  0.16174503  0.77560859     0.14700
C537        C  0.01613722  0.18998792  0.72571935     0.36400
C538        C  0.47558799  0.07980507  0.77605322     0.36300
N539        N  0.02375645  0.21212626  0.71489353    -0.44000
N540        N  0.46702459  0.05714324  0.78493463    -0.44000
C541        C  0.14352482  0.12360777  0.77825857    -0.00400
C542        C  0.12788921  0.13448699  0.79353915    -0.12200
C543        C  0.11661498  0.14587331  0.76797881     0.01900
C544        C  0.12043682  0.14596436  0.72607183    -0.00500
C545        C  0.13591824  0.13503062  0.71074117    -0.12200
C546        C  0.14774014  0.12423866  0.73626816     0.01800
H547        H  0.12455354  0.13422611  0.82560197     0.14700
H548        H  0.13898986  0.13513690  0.67861281     0.14700
C549        C  0.16350420  0.11341890  0.71815156     0.36400
C550        C  0.10042712  0.15640945  0.78549962     0.36300
N551        N  0.17627734  0.10493453  0.70359265    -0.44000
N552        N  0.08751556  0.16488518  0.79961236    -0.44000
C553        C  0.14712985  0.12673553  0.97478510    -0.00400
C554        C  0.12004644  0.11010059  0.98767078    -0.12200
C555        C  0.10762523  0.11996990  0.01360754     0.01900
C556        C  0.12252288  0.14709683  0.52810789    -0.00500
C557        C  0.14952703  0.16389016  0.51494246    -0.12200
C558        C  0.16184079  0.15405249  0.48843173     0.01800
H559        H  0.10831620  0.08912751  0.97726791     0.14700
H560        H  0.16108755  0.18489231  0.52528480     0.14700
C561        C  0.18903979  0.17287889  0.47429664     0.36400
C562        C  0.07909892  0.10212721  0.02290106     0.36300
N563        N  0.21075722  0.18814567  0.46282334    -0.44000
N564        N  0.05620394  0.08781623  0.02997502    -0.44000
C565        C  0.12477573  0.47757066  0.52647177    -0.00400
C566        C  0.13561876  0.50409910  0.04205231    -0.12200
C567        C  0.14720672  0.52704040  0.01683640     0.01900
C568        C  0.14754568  0.02364275  0.97491438    -0.00500
C569        C  0.13679876  0.99720083  0.45927773    -0.12200
C570        C  0.12583823  0.97430063  0.48450691     0.01800
H571        H  0.13503733  0.50695218  0.07415056     0.14700
H572        H  0.13703921  0.99443710  0.42709857     0.14700
C573        C  0.11511226  0.94773788  0.46614883     0.36400
C574        C  0.15756918  0.55370537  0.03467350     0.36300
N575        N  0.10668783  0.92649542  0.45139065    -0.44000
N576        N  0.16593425  0.57507219  0.04898191    -0.44000
C577        C  0.12539485  0.47714109  0.72336657    -0.00400
C578        C  0.10800720  0.48571719  0.73936235    -0.12200
C579        C  0.11754905  0.00747470  0.76642148     0.01900
C580        C  0.14533546  0.02143994  0.77817853    -0.00500
C581        C  0.16275467  0.01284666  0.76209277    -0.12200
C582        C  0.15307755  0.49093281  0.73507570     0.01800
H583        H  0.08666163  0.47523517  0.73079481     0.14700
H584        H  0.18411691  0.02336447  0.77048854     0.14700
C585        C  0.17233525  0.48399339  0.71849157     0.36400
C586        C  0.09834100  0.01539528  0.78026697     0.36300
N587        N  0.18798002  0.47872433  0.70515038    -0.44000
N588        N  0.08283794  0.02161843  0.79120869    -0.44000
C589        C  0.47832527  0.35232831  0.77858717    -0.00400
C590        C  0.47333046  0.34892467  0.73709002    -0.12200
C591        C  0.49475080  0.36002030  0.70931499     0.01900
C592        C  0.02201079  0.37453515  0.72288245    -0.00500
C593        C  0.02708858  0.37729406  0.76438127    -0.12200
C594        C  0.50561457  0.36663413  0.79219225     0.01800
H595        H  0.45250525  0.33801664  0.72616573     0.14700
H596        H  0.04794793  0.38838001  0.77516158     0.14700
C597        C  0.01224745  0.37030229  0.83438858     0.36400
C598        C  0.48811624  0.35571401  0.66714295     0.36300
N599        N  0.01760287  0.37331268  0.86817997    -0.44000
N600        N  0.48277121  0.35228514  0.63336986    -0.44000
C601        C  0.01977532  0.37193655  0.52785908    -0.00400
C602        C  0.00421030  0.38482486  0.52263304    -0.12200
C603        C  0.48129985  0.37370124  0.99760644     0.01900
C604        C  0.47341662  0.34913330  0.97675807    -0.00500
C605        C  0.48816719  0.33561634  0.98290636    -0.12200
C606        C  0.01118708  0.34674880  0.50794245     0.01800
H607        H  0.00999822  0.40388618  0.53796426     0.14700
H608        H  0.48202577  0.31653919  0.96737331     0.14700
C609        C  0.02520861  0.33154391  0.51286242     0.36400
C610        C  0.46555385  0.38734825  0.99519084     0.36300
N611        N  0.03644487  0.31934255  0.51679250    -0.44000
N612        N  0.45282655  0.39815792  0.99355565    -0.44000
C613        C  0.08028473  0.31576180  0.62780697    -0.00400
C614        C  0.07708223  0.30222868  0.59107684    -0.12200
C615        C  0.07678469  0.27731605  0.58902341     0.01900
C616        C  0.07976597  0.26519447  0.62444798    -0.00500
C617        C  0.08048410  0.27752703  0.66144142    -0.12200
C618        C  0.08085379  0.30243713  0.66349676     0.01800
H619        H  0.07594614  0.31168414  0.56341451     0.14700
H620        H  0.08207997  0.26837864  0.68914451     0.14700
C621        C  0.08355978  0.31434969  0.70271679     0.36400
C622        C  0.07452661  0.26554929  0.54982601     0.36300
N623        N  0.08578103  0.32382222  0.73420043    -0.44000
N624        N  0.07269499  0.25620016  0.51834495    -0.44000
C625        C  0.34915204  0.47472025  0.72413957    -0.00400
C626        C  0.33278144  0.48542395  0.73725012    -0.12200
C627        C  0.34293017  0.00755963  0.76404510     0.01900
C628        C  0.36988507  0.01921808  0.77870275    -0.00500
C629        C  0.38597078  0.00814353  0.76632353    -0.12200
C630        C  0.37603393  0.48630038  0.73936384     0.01800
H631        H  0.31203034  0.47661178  0.72632469     0.14700
H632        H  0.40667989  0.01686691  0.77742203     0.14700
C633        C  0.39380190  0.47579651  0.72901496     0.36400
C634        C  0.32497311  0.01723990  0.77710752     0.36300
N635        N  0.40815299  0.46750871  0.72080351    -0.44000
N636        N  0.31054611  0.02493083  0.78768607    -0.44000
C637        C  0.36769829  0.01960718  0.97325847    -0.00400
C638        C  0.36756168  0.02375953  0.51469081    -0.12200
C639        C  0.35779531  0.00179786  0.54165760     0.01900
C640        C  0.34728301  0.47486616  0.52712593    -0.00500
C641        C  0.34628590  0.47062356  0.98555441    -0.12200
C642        C  0.35656947  0.49264440  0.95865393     0.01800
H643        H  0.37605902  0.04438931  0.52619771     0.14700
H644        H  0.33811339  0.45004575  0.97401099     0.14700
C645        C  0.35518231  0.48695295  0.91623000     0.36400
C646        C  0.35860835  0.00752490  0.58399400     0.36300
N647        N  0.35404285  0.48234034  0.88226238    -0.44000
N648        N  0.35932606  0.01215876  0.61790403    -0.44000
C649        C  0.37128902  0.35073193  0.96876635    -0.00400
C650        C  0.34969898  0.33283713  0.99404139    -0.12200
C651        C  0.33782951  0.34274501  0.52133554     0.01900
C652        C  0.34814129  0.37114770  0.52463292    -0.00500
C653        C  0.36945893  0.38897894  0.49934232    -0.12200
C654        C  0.38073625  0.37915230  0.97118774     0.01800
H655        H  0.34201334  0.31103955  0.99247582     0.14700
H656        H  0.37711963  0.41078355  0.50121208     0.14700
C657        C  0.40233204  0.39899212  0.94588886     0.36400
C658        C  0.31571405  0.32349344  0.54646712     0.36300
N659        N  0.41952704  0.41487670  0.92547006    -0.44000
N660        N  0.29794013  0.30813020  0.56659204    -0.44000
C661        C  0.35191523  0.37328143  0.71942279    -0.00400
C662        C  0.37848186  0.38993450  0.73370879    -0.12200
C663        C  0.39033318  0.37975757  0.76032830     0.01900
C664        C  0.37543668  0.35210907  0.77310029    -0.00500
C665        C  0.34894974  0.33529657  0.75790600    -0.12200
C666        C  0.33712256  0.34566667  0.73138436     0.01800
H667        H  0.39000358  0.41112937  0.72414881     0.14700
H668        H  0.33736150  0.31398555  0.76685002     0.14700
C669        C  0.31032923  0.32735104  0.71543124     0.36400
C670        C  0.41813460  0.39805299  0.77269131     0.36300
N671        N  0.28896086  0.31260395  0.70237105    -0.44000
N672        N  0.44041868  0.41278066  0.78244755    -0.44000
C673        C  0.23207390  0.41464037  0.61937575    -0.00400
C674        C  0.22049727  0.41606476  0.65586862    -0.12200
C675        C  0.19612877  0.41666436  0.65719585     0.01900
C676        C  0.18217699  0.41545176  0.62121229    -0.00500
C677        C  0.19489773  0.41631318  0.58455204    -0.12200
C678        C  0.21960452  0.41614413  0.58325376     0.01800
H679        H  0.23010739  0.41590755  0.68393782     0.14700
H680        H  0.18501714  0.41604630  0.55655205     0.14700
C681        C  0.23098948  0.41668701  0.54427022     0.36400
C682        C  0.18594576  0.41796749  0.69634064     0.36300
N683        N  0.24020631  0.41730406  0.51304871    -0.44000
N684        N  0.17791100  0.41899621  0.72781152    -0.44000
C685        C  0.18054857  0.26374747  0.63001903    -0.00400
C686        C  0.19143707  0.27754934  0.66633521    -0.12200
C687        C  0.21622555  0.30233899  0.66746120     0.01900
C688        C  0.23103532  0.31385686  0.63156191    -0.00500
C689        C  0.22128633  0.29886562  0.59585235    -0.12200
C690        C  0.19646105  0.27410995  0.59473858     0.01800
H691        H  0.17978181  0.26988878  0.69377079     0.14700
H692        H  0.23266277  0.30694099  0.56827407     0.14700
C693        C  0.18782093  0.26021098  0.55666713     0.36400
C694        C  0.22458283  0.31624720  0.70556576     0.36300
N695        N  0.18100578  0.24918754  0.52607210    -0.44000
N696        N  0.23110850  0.32730721  0.73616655    -0.44000
Fe697      Fe  0.35056919  0.92454513  0.12330086     1.65800
Fe698      Fe  0.29110035  0.89441472  0.17552994     1.73200
Fe699      Fe  0.29043112  0.89222717  0.07368878     1.54400
O700        O  0.31748404  0.92827444  0.04386845    -0.81900
O701        O  0.26773655  0.85371739  0.16108541    -0.80200
O702        O  0.35066462  0.95389092  0.08679332    -0.84400
O703        O  0.35356358  0.90363911  0.07388364    -0.79200
O704        O  0.26749727  0.90992546  0.08828208    -0.81000
O705        O  0.31847151  0.88500965  0.20278282    -0.83800
C706        C  0.33696450  0.88306689  0.05317724     0.97000
C707        C  0.33782422  0.95103534  0.05436573     1.04400
O708        O  0.31064583  0.90365254  0.12432261    -1.12700
O709        O  0.31228172  0.93421465  0.19621171    -0.75200
O710        O  0.35383338  0.94861700  0.17216096    -0.78700
O711        O  0.31137604  0.87321814  0.05483599    -0.79400
C712        C  0.33769541  0.95121275  0.19574318     0.95900
O713        O  0.35337620  0.89703521  0.16053497    -0.77300
O714        O  0.26112656  0.90217842  0.15390731    -0.82500
C715        C  0.25463844  0.84232016  0.12942756     0.98500
C716        C  0.25520410  0.90900845  0.12054174     1.04400
O717        O  0.26021155  0.85484341  0.09599515    -0.78200
C718        C  0.34035571  0.88552724  0.19240502     1.02700
Fe719      Fe  0.07258343  0.92624917  0.12441315     1.65800
Fe720      Fe  0.10320497  0.89680940  0.17520708     1.73200
Fe721      Fe  0.10194834  0.89554191  0.07302804     1.54400
O722        O  0.06237758  0.87816069  0.05190269    -0.81900
O723        O  0.14051782  0.90429190  0.15394251    -0.80200
O724        O  0.04726152  0.90435403  0.07729935    -0.84400
O725        O  0.10003305  0.95574028  0.08561155    -0.79200
O726        O  0.09280381  0.85737640  0.09388367    -0.81000
O727        O  0.12190462  0.93662104  0.19582155    -0.83800
C728        C  0.11173998  0.95385531  0.05426880     0.97000
C729        C  0.04455251  0.88542988  0.05396976     1.04400
O730        O  0.09266383  0.90625760  0.12414888    -1.12700
O731        O  0.06724399  0.88765303  0.20422699    -0.75200
O732        O  0.04326329  0.89853838  0.16295570    -0.78700
O733        O  0.11241557  0.93234635  0.04553833    -0.79400
C734        C  0.04544886  0.88749733  0.19483723     0.95900
O735        O  0.09451626  0.95096250  0.17209437    -0.77300
O736        O  0.08575472  0.85611738  0.15963294    -0.82500
C737        C  0.15362202  0.91058138  0.12115299     0.98500
C738        C  0.08615881  0.84463692  0.12714894     1.04400
O739        O  0.14266973  0.91140043  0.08828588    -0.78200
C740        C  0.11358922  0.95369504  0.19512654     1.02700
Fe741      Fe  0.06986749  0.64543382  0.12705338     1.65800
Fe742      Fe  0.10070771  0.70571627  0.07568481     1.73200
Fe743      Fe  0.09955666  0.70568609  0.17799571     1.54400
O744        O  0.06004639  0.68414429  0.19911332    -0.81900
O745        O  0.13877075  0.73476720  0.09637055    -0.80200
O746        O  0.04501770  0.64250094  0.17431701    -0.84400
O747        O  0.09712972  0.64348548  0.16596921    -0.79200
O748        O  0.09147135  0.73525123  0.15720744    -0.81000
O749        O  0.11806596  0.68374076  0.05409596    -0.83800
C750        C  0.10812906  0.65679406  0.19777527     0.97000
C751        C  0.04259582  0.65882349  0.19774002     1.04400
O752        O  0.09004464  0.68562089  0.12688942    -1.12700
O753        O  0.06412197  0.67930039  0.04774459    -0.75200
O754        O  0.04058347  0.64349254  0.08816974    -0.78700
O755        O  0.10887429  0.67897401  0.20650523    -0.79400
C756        C  0.04268223  0.65700629  0.05658849     0.95900
O757        O  0.09173906  0.64228681  0.07987291    -0.77300
O758        O  0.08469001  0.73018519  0.09149743    -0.82500
C759        C  0.15163487  0.74092339  0.12939474     0.98500
C760        C  0.08516013  0.74186095  0.12421174     1.04400
O761        O  0.14020037  0.72947172  0.16225178    -0.78200
C762        C  0.11013624  0.65841301  0.05574114     1.02700
Fe763      Fe  0.42556455  0.85188781  0.37457245     1.65800
Fe764      Fe  0.39568739  0.79271382  0.32175833     1.73200
Fe765      Fe  0.39434009  0.79094766  0.42415430     1.54400
O766        O  0.43326564  0.81243486  0.44810079    -0.81900
O767        O  0.35717323  0.76315513  0.34023504    -0.80200
O768        O  0.44862604  0.85438680  0.42406379    -0.84400
O769        O  0.39680552  0.85309644  0.41073849    -0.79200
O770        O  0.40369743  0.76191457  0.40360692    -0.81000
O771        O  0.37853684  0.81479813  0.29997213    -0.83800
C772        C  0.38437533  0.83957993  0.44181680     0.97000
C773        C  0.45040459  0.83787684  0.44795220     1.04400
O774        O  0.40521046  0.81177817  0.37356266    -1.12700
O775        O  0.43286461  0.81973953  0.29573422    -0.75200
O776        O  0.45613005  0.85406095  0.33829362    -0.78700
O777        O  0.38332160  0.81722568  0.45128746    -0.79400
C778        C  0.45454978  0.84129175  0.30619412     0.95900
O779        O  0.40564448  0.85599464  0.32541874    -0.77300
O780        O  0.41167076  0.76843843  0.33802542    -0.82500
C781        C  0.34350851  0.75627213  0.37261239     0.98500
C782        C  0.41066299  0.75613057  0.37039581     1.04400
O783        O  0.35424654  0.76698005  0.40603316    -0.78200
C784        C  0.38717433  0.84026033  0.30117962     1.02700
Fe785      Fe  0.42260521  0.57095929  0.37691778     1.65800
Fe786      Fe  0.39360120  0.60260954  0.42777310     1.73200
Fe787      Fe  0.39255847  0.60115812  0.32487195     1.54400
O788        O  0.43057609  0.61476255  0.29952536    -0.81900
O789        O  0.35470155  0.59155492  0.40980866    -0.80200
O790        O  0.45034272  0.59576022  0.33451603    -0.84400
O791        O  0.39834234  0.54382090  0.33314545    -0.79200
O792        O  0.40576824  0.64087800  0.34221006    -0.81000
O793        O  0.37824520  0.56411094  0.45301956    -0.83800
C794        C  0.38231360  0.54315703  0.30603594     0.97000
C795        C  0.45032266  0.61069075  0.30611446     1.04400
O796        O  0.40293033  0.59158717  0.37651585    -1.12700
O797        O  0.43107271  0.61545521  0.45355699    -0.75200
O798        O  0.45012195  0.59514549  0.42060944    -0.78700
O799        O  0.37758521  0.56259005  0.30044421    -0.79400
C800        C  0.45033892  0.61056461  0.44836791     0.95900
O801        O  0.39685411  0.54353087  0.41914803    -0.77300
O802        O  0.40771408  0.64241599  0.40878613    -0.82500
C803        C  0.34202516  0.58742538  0.37696448     0.98500
C804        C  0.41029600  0.65386917  0.37497754     1.04400
O805        O  0.35335343  0.58910692  0.34341095    -0.78200
C806        C  0.38144275  0.54374061  0.44655704     1.02700
Fe807      Fe  0.14473726  0.57326603  0.37701433     1.65800
Fe808      Fe  0.20569475  0.60521631  0.42592437     1.73200
Fe809      Fe  0.20374058  0.60274002  0.32384496     1.54400
O810        O  0.18212382  0.56285496  0.30380524    -0.81900
O811        O  0.23475358  0.64300131  0.40351337    -0.80200
O812        O  0.14094648  0.54813052  0.32954578    -0.84400
O813        O  0.14182912  0.60039411  0.33865183    -0.79200
O814        O  0.23359913  0.59510736  0.34373233    -0.81000
O815        O  0.18419409  0.62320429  0.44741396    -0.83800
C816        C  0.15462452  0.61127280  0.30636037     0.97000
C817        C  0.15682675  0.54547343  0.30556574     1.04400
O818        O  0.18476004  0.59378259  0.37562864    -1.12700
O819        O  0.17957768  0.56898511  0.45545583    -0.75200
O820        O  0.14410518  0.54432730  0.41527484    -0.78700
O821        O  0.17652499  0.61176453  0.29686783    -0.79400
C822        C  0.15775233  0.54701187  0.44683286     0.95900
O823        O  0.14232692  0.59516865  0.42471879    -0.77300
O824        O  0.22954985  0.58852705  0.40958426    -0.82500
C825        C  0.24027501  0.65532116  0.36992057     0.98500
C826        C  0.24063672  0.58882101  0.37627913     1.04400
O827        O  0.22758359  0.64357095  0.33807135    -0.78200
C828        C  0.15875656  0.61461898  0.44715311     1.02700
C829        C  0.26375961  0.58324153  0.37545775    -0.00400
C830        C  0.27459196  0.58052869  0.41196554    -0.12200
C831        C  0.29909887  0.58011944  0.41336295     0.01900
C832        C  0.31348517  0.58232041  0.37743586    -0.00500
C833        C  0.30139752  0.58260850  0.34078357    -0.12200
C834        C  0.27702531  0.58317745  0.33935662     0.01800
H835        H  0.26455814  0.57996035  0.43996308     0.14700
H836        H  0.31167776  0.58374426  0.31278781     0.14700
C837        C  0.26706555  0.58483502  0.30014086     0.36400
C838        C  0.30918727  0.57836409  0.45239399     0.36300
N839        N  0.25927887  0.58632883  0.26867351    -0.44000
N840        N  0.31727068  0.57704649  0.48370889    -0.44000
C841        C  0.31440198  0.73370022  0.37104056    -0.00400
C842        C  0.30414657  0.71971808  0.33457999    -0.12200
C843        C  0.27900154  0.69537765  0.33262067     0.01900
C844        C  0.26355736  0.68398654  0.36800628    -0.00500
C845        C  0.27251046  0.69928132  0.40360899    -0.12200
C846        C  0.29730135  0.72409096  0.40527689     0.01800
H847        H  0.31630349  0.72713856  0.30748537     0.14700
H848        H  0.26042594  0.69147012  0.43069270     0.14700
C849        C  0.30444703  0.73896659  0.44262804     0.36400
C850        C  0.27057285  0.68205684  0.29410916     0.36300
N851        N  0.30994680  0.75096199  0.47249174    -0.44000
N852        N  0.26387612  0.67161871  0.26309403    -0.44000
C853        C  0.41666169  0.68294059  0.37317688    -0.00400
C854        C  0.41284872  0.69291699  0.33647774    -0.12200
C855        C  0.41243238  0.71742144  0.33422532     0.01900
C856        C  0.41630269  0.73303783  0.36932114    -0.00500
C857        C  0.42277980  0.72447540  0.40522468    -0.12200
C858        C  0.42308361  0.69983564  0.40748486     0.01800
H859        H  0.40838355  0.68069178  0.30951643     0.14700
H860        H  0.42661377  0.73657898  0.43219030     0.14700
C861        C  0.42930255  0.69228142  0.44576628     0.36400
C862        C  0.40566511  0.72452037  0.29595882     0.36300
N863        N  0.43429337  0.68633368  0.47653087    -0.44000
N864        N  0.40012596  0.73003502  0.26527280    -0.44000
C865        C  0.01937117  0.64602751  0.02844847    -0.00400
C866        C  0.49291763  0.63565817  0.04364936    -0.12200
C867        C  0.47026302  0.62447392  0.01806561     0.01900
C868        C  0.47383640  0.62304098  0.47630864     0.03700
C869        C  0.00030628  0.63314902  0.46119209    -0.12200
C870        C  0.02300238  0.64481604  0.48672517     0.01800
H871        H  0.48994324  0.63634040  0.07573027     0.14700
H872        H  0.00328347  0.63202937  0.42922213     0.14700
C873        C  0.04968922  0.65432418  0.46956517     0.36400
C874        C  0.44350547  0.61353026  0.03573671     0.36300
N875        N  0.07110058  0.66195055  0.45593097    -0.44000
N876        N  0.42208305  0.60475690  0.04994453    -0.44000
C877        C  0.01885849  0.64727115  0.22534455    -0.00400
C878        C  0.00820132  0.62016076  0.23849278    -0.12200
C879        C  0.48612514  0.60808012  0.26492794     0.01900
C880        C  0.47406466  0.62315303  0.27879312    -0.00500
C881        C  0.48439797  0.65014363  0.26539993    -0.12200
C882        C  0.00673924  0.66236038  0.23912051     0.01800
H883        H  0.01726407  0.60829626  0.22824568     0.14700
H884        H  0.47507913  0.66176116  0.27567377     0.14700
C885        C  0.01618324  0.69000925  0.22581248     0.36400
C886        C  0.47553305  0.57977696  0.27596792     0.36300
N887        N  0.02382863  0.71216236  0.21503471    -0.44000
N888        N  0.46695084  0.55710796  0.28482322    -0.44000
C889        C  0.14350516  0.62358385  0.27825658    -0.00400
C890        C  0.12793206  0.63453120  0.29354072    -0.12200
C891        C  0.11666720  0.64592444  0.26797631     0.01900
C892        C  0.12042773  0.64594615  0.22606080    -0.00500
C893        C  0.13584362  0.63493806  0.21072813    -0.12200
C894        C  0.14766196  0.62414456  0.23625992     0.01800
H895        H  0.12464440  0.63432416  0.32561059     0.14700
H896        H  0.13887010  0.63499003  0.17859489     0.14700
C897        C  0.16336438  0.61325292  0.21814909     0.36400
C898        C  0.10056015  0.65654932  0.28550969     0.36300
N899        N  0.17609026  0.60471172  0.20359826    -0.44000
N900        N  0.08771708  0.66509979  0.29963407    -0.44000
C901        C  0.14710398  0.62672312  0.47478942    -0.00400
C902        C  0.11999558  0.61011822  0.48759480    -0.12200
C903        C  0.10758163  0.61999809  0.51352817     0.01900
C904        C  0.12253460  0.64709236  0.02810983    -0.00500
C905        C  0.14951841  0.66391120  0.01487348    -0.12200
C906        C  0.16183816  0.65408071  0.98836113     0.01800
H907        H  0.10823983  0.58916196  0.47713168     0.14700
H908        H  0.16105792  0.68492809  0.02515885     0.14700
C909        C  0.18901055  0.67292758  0.97414986     0.36400
C910        C  0.07903260  0.60220017  0.52273164     0.36300
N911        N  0.21070606  0.68821013  0.96261569    -0.44000
N912        N  0.05611954  0.58792943  0.52973393    -0.44000
C913        C  0.12479683  0.97758207  0.02647449    -0.00400
C914        C  0.13561716  0.00408917  0.54204933    -0.12200
C915        C  0.14719733  0.02702670  0.51682939     0.01900
C916        C  0.14751290  0.52362273  0.47490490    -0.00500
C917        C  0.13684793  0.49722239  0.95928596    -0.12200
C918        C  0.12588440  0.47431951  0.98451180     0.01800
H919        H  0.13505354  0.00694614  0.57414969     0.14700
H920        H  0.13710656  0.49446252  0.92710850     0.14700
C921        C  0.11518771  0.44776136  0.96615126     0.36400
C922        C  0.15757156  0.05369391  0.53466462     0.36300
N923        N  0.10678811  0.42652293  0.95139063    -0.44000
N924        N  0.16594562  0.07506303  0.54896925    -0.44000
C925        C  0.12540160  0.97714316  0.22336118    -0.00400
C926        C  0.10801711  0.98572892  0.23933829    -0.12200
C927        C  0.11755737  0.50748723  0.26639520     0.01900
C928        C  0.14533920  0.52144125  0.27817403    -0.00500
C929        C  0.16275609  0.51283838  0.26210764    -0.12200
C930        C  0.15308049  0.99092410  0.23508996     0.01800
H931        H  0.08667410  0.97525445  0.23075670     0.14700
H932        H  0.18411481  0.52334755  0.27052095     0.14700
C933        C  0.17233376  0.98396999  0.21853008     0.36400
C934        C  0.09835240  0.51541688  0.28022217     0.36300
N935        N  0.18797375  0.97868714  0.20520876    -0.44000
N936        N  0.08285193  0.52164708  0.29115050    -0.44000
C937        C  0.47832439  0.85232491  0.27861636    -0.00400
C938        C  0.47333242  0.84891336  0.23711927    -0.12200
C939        C  0.49475382  0.86001423  0.20934632     0.01900
C940        C  0.02201150  0.87454462  0.22290594    -0.00500
C941        C  0.02708844  0.87731266  0.26440516    -0.12200
C942        C  0.50561337  0.86664459  0.29222379     0.01800
H943        H  0.45250809  0.83799496  0.22619255     0.14700
H944        H  0.04794756  0.88840883  0.27518537     0.14700
C945        C  0.01224410  0.87032700  0.33441252     0.36400
C946        C  0.48812308  0.85569691  0.16717436     0.36300
N947        N  0.01759729  0.87334630  0.36820447    -0.44000
N948        N  0.48278271  0.85225930  0.13340053    -0.44000
C949        C  0.01976778  0.87192716  0.02787616    -0.00400
C950        C  0.00422004  0.88482963  0.02261083    -0.12200
C951        C  0.48127277  0.87367560  0.49765962     0.01900
C952        C  0.47341821  0.84913586  0.47675114    -0.00500
C953        C  0.48820666  0.83565047  0.48281704    -0.12200
C954        C  0.01116149  0.84672131  0.00800477     0.01800
H955        H  0.01002076  0.90390357  0.03791279     0.14700
H956        H  0.48209058  0.81659815  0.46722674     0.14700
C957        C  0.02515611  0.83149534  0.01299198     0.36400
C958        C  0.46549477  0.88729157  0.49530840     0.36300
N959        N  0.03636974  0.81927625  0.01697846    -0.44000
N960        N  0.45274215  0.89807607  0.49372312    -0.44000
C961        C  0.08027811  0.81575439  0.12780092    -0.00400
C962        C  0.07706428  0.80221635  0.09107174    -0.12200
C963        C  0.07676929  0.77730427  0.08901534     0.01900
C964        C  0.07976145  0.76518636  0.12443643    -0.00500
C965        C  0.08049248  0.77752473  0.16142995    -0.12200
C966        C  0.08086433  0.80243599  0.16348768     0.01800
H967        H  0.07591969  0.81166880  0.06341174     0.14700
H968        H  0.08210033  0.76838178  0.18913076     0.14700
C969        C  0.08359897  0.81436016  0.20270540     0.36400
C970        C  0.07450564  0.76553578  0.04981775     0.36300
N971        N  0.08584576  0.82384282  0.23418713    -0.44000
N972        N  0.07267113  0.75618600  0.01833640    -0.44000
C973        C  0.34912145  0.97470958  0.22415557    -0.00400
C974        C  0.33273880  0.98539027  0.23730754    -0.12200
C975        C  0.34288837  0.50752857  0.26409993     0.01900
C976        C  0.36985828  0.51921518  0.27870439    -0.00500
C977        C  0.38595539  0.50816355  0.26628487    -0.12200
C978        C  0.37601655  0.98631523  0.23933681     0.01800
H979        H  0.31197715  0.97655744  0.22641954     0.14700
H980        H  0.40667516  0.51690748  0.27734692     0.14700
C981        C  0.39379869  0.97583451  0.22895421     0.36400
C982        C  0.32491984  0.51718163  0.27721692     0.36300
N983        N  0.40816089  0.96756494  0.22071624    -0.44000
N984        N  0.31048351  0.52484994  0.28784083    -0.44000
C985        C  0.36767623  0.51958854  0.47323410    -0.00400
C986        C  0.36759636  0.52378067  0.01471722    -0.12200
C987        C  0.35783099  0.50181917  0.04168490     0.01900
C988        C  0.34729528  0.97488416  0.02715060    -0.00500
C989        C  0.34628138  0.97060596  0.48552937    -0.12200
C990        C  0.35655541  0.99262654  0.45862814     0.01800
H991        H  0.37610776  0.54441239  0.02622349     0.14700
H992        H  0.33811798  0.95002914  0.47398702     0.14700
C993        C  0.35515528  0.98693488  0.41620291     0.36400
C994        C  0.35867990  0.50755219  0.08402426     0.36300
N995        N  0.35400070  0.98232121  0.38223410    -0.44000
N996        N  0.35943101  0.51219257  0.11793650    -0.44000
C997        C  0.37127584  0.85071888  0.46876601    -0.00400
C998        C  0.34968831  0.83282324  0.49404317    -0.12200
C999        C  0.33783721  0.84275928  0.02132983     0.01900
C1000       C  0.34814955  0.87116209  0.02462929    -0.00500
C1001       C  0.36946999  0.88899256  0.99934131    -0.12200
C1002       C  0.38072202  0.87913878  0.47118415     0.01800
H1003       H  0.34200486  0.81102614  0.49247931     0.14700
H1004       H  0.37713137  0.91079735  0.00121126     0.14700
C1005       C  0.40231947  0.89897901  0.44588755     0.36400
C1006       C  0.31571630  0.82350805  0.04645378     0.36300
N1007       N  0.41951658  0.91486325  0.42547120    -0.44000
N1008       N  0.29793728  0.80814584  0.06657222    -0.44000
C1009       C  0.35190346  0.87328598  0.21944310    -0.00400
C1010       C  0.37845771  0.88995120  0.23376552    -0.12200
C1011       C  0.39031293  0.87977672  0.26038259     0.01900
C1012       C  0.37543231  0.85211807  0.27311572    -0.00500
C1013       C  0.34895566  0.83529676  0.25789113    -0.12200
C1014       C  0.33712482  0.84566458  0.23137276     0.01800
H1015       H  0.38996687  0.91115322  0.22423430     0.14700
H1016       H  0.33737780  0.81397982  0.26680829     0.14700
C1017       C  0.31034183  0.82734183  0.21539312     0.36400
C1018       C  0.41810231  0.89808762  0.27278205     0.36300
N1019       N  0.28898134  0.81259017  0.20231274    -0.44000
N1020       N  0.44037693  0.91282991  0.28256475    -0.44000
C1021       C  0.23206634  0.91464191  0.11939487    -0.00400
C1022       C  0.22047817  0.91604083  0.15589152    -0.12200
C1023       C  0.19610925  0.91663871  0.15722169     0.01900
C1024       C  0.18216997  0.91545106  0.12123618    -0.00500
C1025       C  0.19490481  0.91634321  0.08457657    -0.12200
C1026       C  0.21961189  0.91617581  0.08327650     0.01800
H1027       H  0.23007809  0.91586250  0.18396024     0.14700
H1028       H  0.18503524  0.91609922  0.05657661     0.14700
C1029       C  0.23101309  0.91675272  0.04429359     0.36400
C1030       C  0.18591167  0.91791093  0.19637005     0.36300
N1031       N  0.24024269  0.91739686  0.01307258    -0.44000
N1032       N  0.17786446  0.91891479  0.22784284    -0.44000
C1033       C  0.18054491  0.76373960  0.12999932    -0.00400
C1034       C  0.19142857  0.77754862  0.16631127    -0.12200
C1035       C  0.21621448  0.80234022  0.16743344     0.01900
C1036       C  0.23102892  0.81385199  0.13153527    -0.00500
C1037       C  0.22128424  0.79885476  0.09582968    -0.12200
C1038       C  0.19645961  0.77409724  0.09471947     0.01800
H1039       H  0.17977009  0.76989302  0.19374520     0.14700
H1040       H  0.23266320  0.80692675  0.06825261     0.14700
C1041       C  0.18782111  0.76019114  0.05665275     0.36400
C1042       C  0.22456170  0.81625917  0.20553109     0.36300
N1043       N  0.18100569  0.74916124  0.02606233    -0.44000
N1044       N  0.23107925  0.82732916  0.23612524    -0.44000
Fe1045     Fe  0.35057941  0.92454464  0.62328633     1.65800
Fe1046     Fe  0.29111743  0.89442663  0.67553191     1.73200
Fe1047     Fe  0.29043553  0.89221810  0.57369438     1.54400
O1048       O  0.31748840  0.92825517  0.54385314    -0.81900
O1049       O  0.26774365  0.85372600  0.66110863    -0.80200
O1050       O  0.35066540  0.95388547  0.58677556    -0.84400
O1051       O  0.35356291  0.90363417  0.57386954    -0.79200
O1052       O  0.26750796  0.90992426  0.58827633    -0.81000
O1053       O  0.31848991  0.88501807  0.70277744    -0.83800
C1054       C  0.33696021  0.88305308  0.55318229     0.97000
C1055       C  0.33782326  0.95102089  0.55434595     1.04400
O1056       O  0.31065617  0.90365361  0.62432124    -1.12700
O1057       O  0.31230887  0.93423056  0.69619640    -0.75200
O1058       O  0.35385927  0.94862249  0.67214779    -0.78700
O1059       O  0.31137198  0.87319865  0.55485891    -0.79400
C1060       C  0.33772391  0.95122361  0.69572822     0.95900
O1061       O  0.35338806  0.89703465  0.66051867    -0.77300
O1062       O  0.26114305  0.90219238  0.65390609    -0.82500
C1063       C  0.25464425  0.84232461  0.62945367     0.98500
C1064       C  0.25521597  0.90901254  0.62053470     1.04400
O1065       O  0.26021631  0.85484345  0.59601836    -0.78200
C1066       C  0.34036962  0.88552817  0.69239118     1.02700
Fe1067     Fe  0.07258592  0.92624751  0.62440930     1.65800
Fe1068     Fe  0.10321522  0.89681824  0.67520176     1.73200
Fe1069     Fe  0.10194934  0.89554057  0.57302654     1.54400
O1070       O  0.06237526  0.87815183  0.55191354    -0.81900
O1071       O  0.14052882  0.90429890  0.65393175    -0.80200
O1072       O  0.04727628  0.90436715  0.57727618    -0.84400
O1073       O  0.10004317  0.95574283  0.58562800    -0.79200
O1074       O  0.09281340  0.85738104  0.59388941    -0.81000
O1075       O  0.12191520  0.93663172  0.69580585    -0.83800
C1076       C  0.11173379  0.95385027  0.55427207     0.97000
C1077       C  0.04455977  0.88543454  0.55395911     1.04400
O1078       O  0.09266963  0.90626006  0.62414505    -1.12700
O1079       O  0.06725143  0.88766275  0.70421734    -0.75200
O1080       O  0.04326066  0.89852386  0.66292756    -0.78700
O1081       O  0.11240240  0.93233885  0.54553319    -0.79400
C1082       C  0.04544983  0.88749171  0.69481564     0.95900
O1083       O  0.09450314  0.95095196  0.67210954    -0.77300
O1084       O  0.08576465  0.85612600  0.65963791    -0.82500
C1085       C  0.15362985  0.91058594  0.62113833     0.98500
C1086       C  0.08616765  0.84464370  0.62715592     1.04400
O1087       O  0.14267439  0.91140505  0.58827382    -0.78200
C1088       C  0.11358566  0.95369445  0.69512889     1.02700
Fe1089     Fe  0.06987286  0.64544360  0.62706781     1.65800
Fe1090     Fe  0.10070897  0.70572401  0.57570016     1.73200
Fe1091     Fe  0.09955910  0.70569672  0.67801241     1.54400
O1092       O  0.06004967  0.68415656  0.69912392    -0.81900
O1093       O  0.13877441  0.73477351  0.59638815    -0.80200
O1094       O  0.04502730  0.64251223  0.67433356    -0.84400
O1095       O  0.09714070  0.64350258  0.66598060    -0.79200
O1096       O  0.09147532  0.73526172  0.65722511    -0.81000
O1097       O  0.11806568  0.68374811  0.55410613    -0.83800
C1098       C  0.10813462  0.65680877  0.69779048     0.97000
C1099       C  0.04260321  0.65883503  0.69775243     1.04400
O1100       O  0.09004783  0.68563043  0.62690471    -1.12700
O1101       O  0.06411789  0.67930705  0.54776263    -0.75200
O1102       O  0.04058424  0.64349652  0.58818463    -0.78700
O1103       O  0.10887388  0.67898469  0.70652760    -0.79400
C1104       C  0.04267915  0.65700990  0.55660383     0.95900
O1105       O  0.09173922  0.64229356  0.57988362    -0.77300
O1106       O  0.08469405  0.73019368  0.59151556    -0.82500
C1107       C  0.15163788  0.74093170  0.62941391     0.98500
C1108       C  0.08516389  0.74186980  0.62422895     1.04400
O1109       O  0.14020250  0.72948207  0.66227136    -0.78200
C1110       C  0.11013348  0.65841993  0.55574881     1.02700
Fe1111     Fe  0.42557309  0.85188868  0.87456026     1.65800
Fe1112     Fe  0.39569896  0.79271494  0.82174549     1.73200
Fe1113     Fe  0.39434054  0.79095011  0.92414109     1.54400
O1114       O  0.43326337  0.81243113  0.94809944    -0.81900
O1115       O  0.35718999  0.76314759  0.84021782    -0.80200
O1116       O  0.44863527  0.85438205  0.92404883    -0.84400
O1117       O  0.39681978  0.85310627  0.91073536    -0.79200
O1118       O  0.40369212  0.76191162  0.90359147    -0.81000
O1119       O  0.37853802  0.81478941  0.79996419    -0.83800
C1120       C  0.38438578  0.83958959  0.94181221     0.97000
C1121       C  0.45040645  0.83787238  0.94794806     1.04400
O1122       O  0.40521786  0.81178038  0.87355055    -1.12700
O1123       O  0.43286787  0.81974490  0.79571139    -0.75200
O1124       O  0.45613684  0.85406030  0.83827626    -0.78700
O1125       O  0.38332527  0.81723120  0.95127733    -0.79400
C1126       C  0.45455357  0.84129496  0.80617138     0.95900
O1127       O  0.40564670  0.85598867  0.82540701    -0.77300
O1128       O  0.41169589  0.76845344  0.83801662    -0.82500
C1129       C  0.34351849  0.75627702  0.87258776     0.98500
C1130       C  0.41067023  0.75613527  0.87038432     1.04400
O1131       O  0.35424993  0.76699441  0.90600678    -0.78200
C1132       C  0.38717603  0.84025167  0.80116892     1.02700
Fe1133     Fe  0.42261651  0.57096433  0.87692895     1.65800
Fe1134     Fe  0.39361407  0.60262048  0.92777426     1.73200
Fe1135     Fe  0.39256692  0.60115666  0.82487538     1.54400
O1136       O  0.43058856  0.61477588  0.79954189    -0.81900
O1137       O  0.35471924  0.59157552  0.90980354    -0.80200
O1138       O  0.45034519  0.59575687  0.83451625    -0.84400
O1139       O  0.39835026  0.54381444  0.83316890    -0.79200
O1140       O  0.40575708  0.64087235  0.84221336    -0.81000
O1141       O  0.37825275  0.56412179  0.95302571    -0.83800
C1142       C  0.38233545  0.54315722  0.80604125     0.97000
C1143       C  0.45033011  0.61069533  0.80612351     1.04400
O1144       O  0.40294028  0.59159085  0.87652107    -1.12700
O1145       O  0.43108131  0.61546128  0.95355863    -0.75200
O1146       O  0.45013727  0.59516130  0.92060501    -0.78700
O1147       O  0.37761522  0.56259471  0.80043851    -0.79400
C1148       C  0.45035090  0.61057722  0.94836532     0.95900
O1149       O  0.39687607  0.54354676  0.91917553    -0.77300
O1150       O  0.40773565  0.64242815  0.90878644    -0.82500
C1151       C  0.34203699  0.58742908  0.87696174     0.98500
C1152       C  0.41029912  0.65387188  0.87497519     1.04400
O1153       O  0.35335730  0.58908847  0.84340864    -0.78200
C1154       C  0.38146020  0.54375583  0.94657737     1.02700
Fe1155     Fe  0.14475480  0.57327834  0.87701378     1.65800
Fe1156     Fe  0.20571713  0.60523791  0.92590593     1.73200
Fe1157     Fe  0.20375106  0.60274318  0.82382452     1.54400
O1158       O  0.18212340  0.56285705  0.80379301    -0.81900
O1159       O  0.23476839  0.64301869  0.90347811    -0.80200
O1160       O  0.14095154  0.54813535  0.82955044    -0.84400
O1161       O  0.14184327  0.60040361  0.83864591    -0.79200
O1162       O  0.23360613  0.59510328  0.84370663    -0.81000
O1163       O  0.18422138  0.62323121  0.94739391    -0.83800
C1164       C  0.15463993  0.61128750  0.80635635     0.97000
C1165       C  0.15682670  0.54547573  0.80556399     1.04400
O1166       O  0.18477731  0.59379490  0.87561497    -1.12700
O1167       O  0.17960456  0.56900924  0.95545716    -0.75200
O1168       O  0.14413020  0.54434437  0.91528192    -0.78700
O1169       O  0.17653861  0.61177652  0.79686082    -0.79400
C1170       C  0.15778001  0.54703275  0.94683943     0.95900
O1171       O  0.14235209  0.59518543  0.92471520    -0.77300
O1172       O  0.22957172  0.58854944  0.90956537    -0.82500
C1173       C  0.24029083  0.65533294  0.86988095     0.98500
C1174       C  0.24065129  0.58883088  0.87625894     1.04400
O1175       O  0.22760586  0.64357541  0.83803214    -0.78200
C1176       C  0.15878297  0.61463942  0.94714216     1.02700
C1177       C  0.26377557  0.58325393  0.87544498    -0.00400
C1178       C  0.27461687  0.58056385  0.91195847    -0.12200
C1179       C  0.29912547  0.58015923  0.91336252     0.01900
C1180       C  0.31349991  0.58233098  0.87743450    -0.00500
C1181       C  0.30140558  0.58260055  0.84077933    -0.12200
C1182       C  0.27703620  0.58317486  0.83934674     0.01800
H1183       H  0.26459084  0.58001423  0.93995514     0.14700
H1184       H  0.31168012  0.58372071  0.81278442     0.14700
C1185       C  0.26707761  0.58482794  0.80012796     0.36400
C1186       C  0.30923160  0.57844845  0.95240161     0.36300
N1187       N  0.25929379  0.58632042  0.76865773    -0.44000
N1188       N  0.31733052  0.57717025  0.98372331    -0.44000
C1189       C  0.31441089  0.73371091  0.87101037    -0.00400
C1190       C  0.30414886  0.71974259  0.83454154    -0.12200
C1191       C  0.27900144  0.69540492  0.83257676     0.01900
C1192       C  0.26356620  0.68400144  0.86796616    -0.00500
C1193       C  0.27252271  0.69928791  0.90357555    -0.12200
C1194       C  0.29731355  0.72409550  0.90524865     0.01800
H1195       H  0.31630092  0.72717301  0.80744381     0.14700
H1196       H  0.26044160  0.69147089  0.93066139     0.14700
C1197       C  0.30446377  0.73896098  0.94260865     0.36400
C1198       C  0.27055773  0.68210479  0.79405308     0.36300
N1199       N  0.30996846  0.75094945  0.97247872    -0.44000
N1200       N  0.26384946  0.67168620  0.76302664    -0.44000
C1201       C  0.41665952  0.68294119  0.87316481    -0.00400
C1202       C  0.41280785  0.69289769  0.83647415    -0.12200
C1203       C  0.41238929  0.71740053  0.83422194     0.01900
C1204       C  0.41630207  0.73303854  0.86930642    -0.00500
C1205       C  0.42281223  0.72449406  0.90519758    -0.12200
C1206       C  0.42311433  0.69985318  0.90745938     0.01800
H1207       H  0.40831164  0.68065706  0.80952395     0.14700
H1208       H  0.42667377  0.73661312  0.93215289     0.14700
C1209       C  0.42936507  0.69231533  0.94572974     0.36400
C1210       C  0.40556764  0.72447199  0.79597609     0.36300
N1211       N  0.43438070  0.68638139  0.97648662    -0.44000
N1212       N  0.39998308  0.72996380  0.76530795    -0.44000
C1213       C  0.01936470  0.64602576  0.52846201    -0.00400
C1214       C  0.49290116  0.63560805  0.54366367    -0.12200
C1215       C  0.47024619  0.62441864  0.51807810     0.01900
C1216       C  0.47384850  0.62305740  0.97630278     0.03700
C1217       C  0.00031134  0.63312251  0.96118743    -0.12200
C1218       C  0.02300658  0.64478309  0.98671959     0.01800
H1219       H  0.48992186  0.63626055  0.57574888     0.14700
H1220       H  0.00328565  0.63197418  0.92922335     0.14700
C1221       C  0.04968868  0.65424881  0.96956977     0.36400
C1222       C  0.44348358  0.61342825  0.53575044     0.36300
N1223       N  0.07109585  0.66184109  0.95594271    -0.44000
N1224       N  0.42205689  0.60461628  0.54995910    -0.44000
C1225       C  0.01886865  0.64728209  0.72535587    -0.00400
C1226       C  0.00823707  0.62018405  0.73854313    -0.12200
C1227       C  0.48615838  0.60809877  0.76498291     0.01900
C1228       C  0.47407263  0.62315849  0.77880525    -0.00500
C1229       C  0.48437849  0.65013551  0.76536624    -0.12200
C1230       C  0.00672610  0.66235854  0.73908854     0.01800
H1231       H  0.01731928  0.60833079  0.72832627     0.14700
H1232       H  0.47503923  0.66174189  0.77560368     0.14700
C1233       C  0.01614143  0.68999128  0.72572775     0.36400
C1234       C  0.47559224  0.57980576  0.77606032     0.36300
N1235       N  0.02376311  0.71213091  0.71490594    -0.44000
N1236       N  0.46703044  0.55714454  0.78494395    -0.44000
C1237       C  0.14352384  0.62360754  0.77825854    -0.00400
C1238       C  0.12788783  0.63448632  0.79353904    -0.12200
C1239       C  0.11661340  0.64587235  0.76797867     0.01900
C1240       C  0.12043575  0.64596381  0.72607185    -0.00500
C1241       C  0.13591740  0.63503037  0.71074112    -0.12200
C1242       C  0.14773925  0.62423842  0.73626816     0.01800
H1243       H  0.12455189  0.63422523  0.82560193     0.14700
H1244       H  0.13898914  0.63513682  0.67861299     0.14700
C1245       C  0.16350318  0.61341850  0.71815160     0.36400
C1246       C  0.10042459  0.65640755  0.78549907     0.36300
N1247       N  0.17627616  0.60493393  0.70359269    -0.44000
N1248       N  0.08751216  0.66488244  0.79961128    -0.44000
C1249       C  0.14712879  0.62673507  0.97478617    -0.00400
C1250       C  0.12004500  0.61010064  0.98767063    -0.12200
C1251       C  0.10762411  0.61996998  0.01360800     0.01900
C1252       C  0.12252267  0.64709672  0.52810903    -0.00500
C1253       C  0.14952793  0.66388892  0.51494757    -0.12200
C1254       C  0.16184178  0.65405109  0.48843722     0.01800
H1255       H  0.10831415  0.58912784  0.97726629     0.14700
H1256       H  0.16108932  0.68489031  0.52529295     0.14700
C1257       C  0.18904244  0.67287648  0.47430722     0.36400
C1258       C  0.07909751  0.60212799  0.02290047     0.36300
N1259       N  0.21076131  0.68814248  0.46283817    -0.44000
N1260       N  0.05620230  0.58781762  0.02997367    -0.44000
C1261       C  0.12477862  0.97757063  0.52647163    -0.00400
C1262       C  0.13562100  0.00409939  0.04205340    -0.12200
C1263       C  0.14720881  0.02704070  0.01683737     0.01900
C1264       C  0.14754453  0.52364251  0.97491356    -0.00500
C1265       C  0.13679577  0.49720016  0.45927754    -0.12200
C1266       C  0.12583478  0.47430018  0.48450707     0.01800
H1267       H  0.13504034  0.00695252  0.07415152     0.14700
H1268       H  0.13703610  0.49443613  0.42709839     0.14700
C1269       C  0.11510761  0.44773714  0.46614943     0.36400
C1270       C  0.15757180  0.05370570  0.03467461     0.36300
N1271       N  0.10668210  0.42649440  0.45139170    -0.44000
N1272       N  0.16593720  0.07507254  0.04898311    -0.44000
C1273       C  0.12539569  0.97714140  0.72336610    -0.00400
C1274       C  0.10800792  0.98571717  0.73936237    -0.12200
C1275       C  0.11754851  0.50747507  0.76642094     0.01900
C1276       C  0.14533487  0.52144020  0.77817818    -0.00500
C1277       C  0.16275397  0.51284658  0.76209291    -0.12200
C1278       C  0.15307841  0.99093320  0.73507514     0.01800
H1279       H  0.08666209  0.97523493  0.73079485     0.14700
H1280       H  0.18411608  0.52336423  0.77048876     0.14700
C1281       C  0.17233634  0.98399435  0.71849035     0.36400
C1282       C  0.09834065  0.51539620  0.78026538     0.36300
N1283       N  0.18798149  0.97872600  0.70514867    -0.44000
N1284       N  0.08283772  0.52161980  0.79120611    -0.44000
C1285       C  0.47832527  0.85232712  0.77858939    -0.00400
C1286       C  0.47333052  0.84892254  0.73709227    -0.12200
C1287       C  0.49475080  0.86001818  0.70931718     0.01900
C1288       C  0.02201090  0.87453682  0.72288101    -0.00500
C1289       C  0.02708852  0.87729542  0.76437987    -0.12200
C1290       C  0.50561462  0.86663390  0.79219433     0.01800
H1291       H  0.45250529  0.83801370  0.72616792     0.14700
H1292       H  0.04794781  0.88838119  0.77516041     0.14700
C1293       C  0.01224719  0.87030288  0.83438704     0.36400
C1294       C  0.48811629  0.85571065  0.66714523     0.36300
N1295       N  0.01760250  0.87331284  0.86817847    -0.44000
N1296       N  0.48277132  0.85228073  0.63337219    -0.44000
C1297       C  0.01977689  0.87193674  0.52785907    -0.00400
C1298       C  0.00421666  0.88482930  0.52262428    -0.12200
C1299       C  0.48129317  0.87369574  0.99761548     0.01900
C1300       C  0.47341466  0.84913170  0.97675916    -0.00500
C1301       C  0.48816994  0.83561883  0.98289877    -0.12200
C1302       C  0.01118410  0.84674520  0.50795144     0.01800
H1303       H  0.01000822  0.90389362  0.53794867     0.14700
H1304       H  0.48203204  0.81654461  0.96735914     0.14700
C1305       C  0.02520015  0.83153581  0.51288259     0.36400
C1306       C  0.46554186  0.88733753  0.99520817     0.36300
N1307       N  0.03643188  0.81933073  0.51682177    -0.44000
N1308       N  0.45281001  0.89814259  0.99357930    -0.44000
C1309       C  0.08028364  0.81576120  0.62781011    -0.00400
C1310       C  0.07707891  0.80222706  0.59108029    -0.12200
C1311       C  0.07678074  0.77731411  0.58902686     0.01900
C1312       C  0.07976457  0.76519379  0.62445083    -0.00500
C1313       C  0.08048451  0.77752717  0.66144436    -0.12200
C1314       C  0.08085407  0.80243722  0.66349978     0.01800
H1315       H  0.07594138  0.81168181  0.56341835     0.14700
H1316       H  0.08208191  0.76837961  0.68914700     0.14700
C1317       C  0.08356134  0.81435041  0.70271965     0.36400
C1318       C  0.07451858  0.76554526  0.54983002     0.36300
N1319       N  0.08578343  0.82382330  0.73420321    -0.44000
N1320       N  0.07268345  0.75619426  0.51834950    -0.44000
C1321       C  0.34915275  0.97472014  0.72414004    -0.00400
C1322       C  0.33278211  0.98542375  0.73725077    -0.12200
C1323       C  0.34292941  0.50755965  0.76404474     0.01900
C1324       C  0.36988412  0.51921769  0.77870307    -0.00500
C1325       C  0.38596982  0.50814313  0.76632385    -0.12200
C1326       C  0.37603473  0.98630046  0.73936399     0.01800
H1327       H  0.31203088  0.97661133  0.72632581     0.14700
H1328       H  0.40667888  0.51686639  0.77742256     0.14700
C1329       C  0.39380250  0.97579628  0.72901556     0.36400
C1330       C  0.32497253  0.51724031  0.77710642     0.36300
N1331       N  0.40815338  0.96750814  0.72080456    -0.44000
N1332       N  0.31054568  0.52493161  0.78768424    -0.44000
C1333       C  0.36769781  0.51960634  0.97325885    -0.00400
C1334       C  0.36756307  0.52376048  0.51469149    -0.12200
C1335       C  0.35779681  0.50179876  0.54165814     0.01900
C1336       C  0.34728355  0.97486550  0.52712576    -0.00500
C1337       C  0.34628589  0.97062434  0.98555398    -0.12200
C1338       C  0.35656954  0.99264522  0.95865352     0.01800
H1339       H  0.37606236  0.54439049  0.52619857     0.14700
H1340       H  0.33811319  0.95004670  0.97401063     0.14700
C1341       C  0.35518182  0.98695373  0.91622956     0.36400
C1342       C  0.35861181  0.50752608  0.58399471     0.36300
N1343       N  0.35404182  0.98234102  0.88226191    -0.44000
N1344       N  0.35933097  0.51216028  0.61790481    -0.44000
C1345       C  0.37128802  0.85073133  0.96876511    -0.00400
C1346       C  0.34969984  0.83283712  0.99404338    -0.12200
C1347       C  0.33782776  0.84274458  0.52133301     0.01900
C1348       C  0.34814053  0.87114738  0.52463195    -0.00500
C1349       C  0.36945864  0.88897870  0.49934208    -0.12200
C1350       C  0.38073361  0.87915151  0.97118307     0.01800
H1351       H  0.34201546  0.81103977  0.99248050     0.14700
H1352       H  0.37712005  0.91078347  0.50121289     0.14700
C1353       C  0.40232752  0.89899065  0.94588099     0.36400
C1354       C  0.31571147  0.82349291  0.54646332     0.36300
N1355       N  0.41952105  0.91487458  0.92545960    -0.44000
N1356       N  0.29793685  0.80812964  0.56658720    -0.44000
C1357       C  0.35191534  0.87328038  0.71942232    -0.00400
C1358       C  0.37848220  0.88993322  0.73370764    -0.12200
C1359       C  0.39033367  0.87975610  0.76032653     0.01900
C1360       C  0.37543697  0.85210770  0.77309894    -0.00500
C1361       C  0.34894988  0.83529536  0.75790504    -0.12200
C1362       C  0.33712264  0.84566560  0.73138376     0.01800
H1363       H  0.39000404  0.91112810  0.72414753     0.14700
H1364       H  0.33736152  0.81398438  0.76684917     0.14700
C1365       C  0.31032923  0.82735006  0.71543082     0.36400
C1366       C  0.41813544  0.89805120  0.77268837     0.36300
N1367       N  0.28896081  0.81260301  0.70237076    -0.44000
N1368       N  0.44041982  0.91277865  0.78244350    -0.44000
C1369       C  0.23207416  0.91464047  0.61937737    -0.00400
C1370       C  0.22049849  0.91606672  0.65587015    -0.12200
C1371       C  0.19613007  0.91666655  0.65719719     0.01900
C1372       C  0.18217731  0.91545178  0.62121374    -0.00500
C1373       C  0.19489718  0.91631151  0.58455347    -0.12200
C1374       C  0.21960400  0.91614263  0.58325523     0.01800
H1375       H  0.23010937  0.91591101  0.68393924     0.14700
H1376       H  0.18501586  0.91604316  0.55655343     0.14700
C1377       C  0.23098815  0.91668408  0.54427158     0.36400
C1378       C  0.18594832  0.91797272  0.69634154     0.36300
N1379       N  0.24020433  0.91730006  0.51304994    -0.44000
N1380       N  0.17791465  0.91900406  0.72781205    -0.44000
C1381       C  0.18054869  0.76374708  0.63002054    -0.00400
C1382       C  0.19143636  0.77755003  0.66633623    -0.12200
C1383       C  0.21622492  0.80233955  0.66746197     0.01900
C1384       C  0.23103537  0.81385643  0.63156287    -0.00500
C1385       C  0.22128729  0.79886407  0.59585404    -0.12200
C1386       C  0.19646212  0.77410819  0.59474070     0.01800
H1387       H  0.17978045  0.76989038  0.69377142     0.14700
H1388       H  0.23266441  0.80693857  0.56827615     0.14700
C1389       C  0.18782324  0.76020718  0.55667057     0.36400
C1390       C  0.22458170  0.81624863  0.70556596     0.36300
N1391       N  0.18100912  0.74918190  0.52607674    -0.44000
N1392       N  0.23110711  0.82730936  0.73616624    -0.44000
Fe1393     Fe  0.85056699  0.42454633  0.12329835     1.65800
Fe1394     Fe  0.79109867  0.39441898  0.17552808     1.73200
Fe1395     Fe  0.79042894  0.39222911  0.07368663     1.54400
O1396       O  0.81748258  0.42827522  0.04386440    -0.81900
O1397       O  0.76773432  0.35372136  0.16108538    -0.80200
O1398       O  0.85066324  0.45389192  0.08678912    -0.84400
O1399       O  0.85356012  0.40363862  0.07388238    -0.79200
O1400       O  0.76749595  0.40992886  0.08827817    -0.81000
O1401       O  0.81846929  0.38501363  0.20278276    -0.83800
C1402       C  0.83696085  0.38306624  0.05317636     0.97000
C1403       C  0.83782295  0.45103608  0.05436128     1.04400
O1404       O  0.81064378  0.40365508  0.12432044    -1.12700
O1405       O  0.81228122  0.43421964  0.19620814    -0.75200
O1406       O  0.85383240  0.44861963  0.17215763    -0.78700
O1407       O  0.81137247  0.37321808  0.05483513    -0.79400
C1408       C  0.83769525  0.45121685  0.19573977     0.95900
O1409       O  0.85337292  0.39703635  0.16053371    -0.77300
O1410       O  0.76112509  0.40218263  0.15390362    -0.82500
C1411       C  0.75463640  0.34232362  0.12942762     0.98500
C1412       C  0.75520234  0.40901179  0.12053747     1.04400
O1413       O  0.76020915  0.35484658  0.09599503    -0.78200
C1414       C  0.84035287  0.38553005  0.19240469     1.02700
Fe1415     Fe  0.57258076  0.42625194  0.12441425     1.65800
Fe1416     Fe  0.60320231  0.39681197  0.17520776     1.73200
Fe1417     Fe  0.60194368  0.39554267  0.07302902     1.54400
O1418       O  0.56237240  0.37816131  0.05190647    -0.81900
O1419       O  0.64051474  0.40429327  0.15394142    -0.80200
O1420       O  0.54725773  0.40435633  0.07730119    -0.84400
O1421       O  0.60003020  0.45574233  0.08561151    -0.79200
O1422       O  0.59279967  0.35737732  0.09388555    -0.81000
O1423       O  0.62190304  0.43662410  0.19582131    -0.83800
C1424       C  0.61173593  0.45385639  0.05426802     0.97000
C1425       C  0.54454773  0.38543102  0.05397317     1.04400
O1426       O  0.59266057  0.40625969  0.12414984    -1.12700
O1427       O  0.56724182  0.38765680  0.20422882    -0.75200
O1428       O  0.54326085  0.39854198  0.16295775    -0.78700
O1429       O  0.61241053  0.43234681  0.04553801    -0.79400
C1430       C  0.54544670  0.38750136  0.19483952     0.95900
O1431       O  0.59451458  0.45096572  0.17209504    -0.77300
O1432       O  0.58575091  0.35611954  0.15963481    -0.82500
C1433       C  0.65361822  0.41058201  0.12115113     0.98500
C1434       C  0.58615516  0.34463856  0.12715142     1.04400
O1435       O  0.64266535  0.41140104  0.08828458    -0.78200
C1436       C  0.61358784  0.45369831  0.19512672     1.02700
Fe1437     Fe  0.56986880  0.14543638  0.12705035     1.65800
Fe1438     Fe  0.60070662  0.20571994  0.07568366     1.73200
Fe1439     Fe  0.59955584  0.20568789  0.17799529     1.54400
O1440       O  0.56004595  0.18414411  0.19911282    -0.81900
O1441       O  0.63877004  0.23476950  0.09636943    -0.80200
O1442       O  0.54501763  0.14250183  0.17431282    -0.84400
O1443       O  0.59713083  0.14348830  0.16596734    -0.79200
O1444       O  0.59146822  0.23525199  0.15721014    -0.81000
O1445       O  0.61806385  0.18374449  0.05408881    -0.83800
C1446       C  0.60812994  0.15679673  0.19777368     0.97000
C1447       C  0.54259516  0.15882352  0.19773692     1.04400
O1448       O  0.59004461  0.18562357  0.12688781    -1.12700
O1449       O  0.56412001  0.17930520  0.04774512    -0.75200
O1450       O  0.54058454  0.14349420  0.08816634    -0.78700
O1451       O  0.60887536  0.17897680  0.20650329    -0.79400
C1452       C  0.54268155  0.15700967  0.05658783     0.95900
O1453       O  0.59174154  0.14229096  0.07986981    -0.77300
O1454       O  0.58469000  0.23018941  0.09149950    -0.82500
C1455       C  0.65163387  0.24092653  0.12939393     0.98500
C1456       C  0.58515806  0.24186312  0.12421486     1.04400
O1457       O  0.64019918  0.22947573  0.16225129    -0.78200
C1458       C  0.61013611  0.15841715  0.05573470     1.02700
Fe1459     Fe  0.92556624  0.35189121  0.37456880     1.65800
Fe1460     Fe  0.89568739  0.29271455  0.32175468     1.73200
Fe1461     Fe  0.89433988  0.29095031  0.42415422     1.54400
O1462       O  0.93326237  0.31244319  0.44811222    -0.81900
O1463       O  0.85716890  0.26316279  0.34022573    -0.80200
O1464       O  0.94863413  0.35439101  0.42405137    -0.84400
O1465       O  0.89681226  0.35310253  0.41074480    -0.79200
O1466       O  0.90370626  0.26192221  0.40361502    -0.81000
O1467       O  0.87854629  0.31480488  0.29995642    -0.83800
C1468       C  0.88437188  0.33958073  0.44181425     0.97000
C1469       C  0.95040724  0.33788371  0.44795171     1.04400
O1470       O  0.90521107  0.31178050  0.37356009    -1.12700
O1471       O  0.93286843  0.31973286  0.29573550    -0.75200
O1472       O  0.95612859  0.35406553  0.33828031    -0.78700
O1473       O  0.88331131  0.31722257  0.45127946    -0.79400
C1474       C  0.95455096  0.34128975  0.30618901     0.95900
O1475       O  0.90564004  0.35599773  0.32542377    -0.77300
O1476       O  0.91166029  0.26843103  0.33802804    -0.82500
C1477       C  0.84350708  0.25627431  0.37260556     0.98500
C1478       C  0.91066236  0.25613085  0.37040191     1.04400
O1479       O  0.85424835  0.26697510  0.40602811    -0.78200
C1480       C  0.88717649  0.34026542  0.30117513     1.02700
Fe1481     Fe  0.92260578  0.07095923  0.37692367     1.65800
Fe1482     Fe  0.89360328  0.10261046  0.42778087     1.73200
Fe1483     Fe  0.89256007  0.10115961  0.32487950     1.54400
O1484       O  0.93057802  0.11476473  0.29953294    -0.81900
O1485       O  0.85470461  0.09155996  0.40981570    -0.80200
O1486       O  0.95034244  0.09575888  0.33452002    -0.84400
O1487       O  0.89834080  0.04382001  0.33315256    -0.79200
O1488       O  0.90576923  0.14087881  0.34221995    -0.81000
O1489       O  0.87824454  0.06411089  0.45302543    -0.83800
C1490       C  0.88231350  0.04315772  0.30604166     0.97000
C1491       C  0.95032363  0.11069107  0.30612004     1.04400
O1492       O  0.90293160  0.09158781  0.37652294    -1.12700
O1493       O  0.93107410  0.11545303  0.45356570    -0.75200
O1494       O  0.95012463  0.09514659  0.42061289    -0.78700
O1495       O  0.87758693  0.06259196  0.30044955    -0.79400
C1496       C  0.95034125  0.11056420  0.44837355     0.95900
O1497       O  0.89685583  0.04353206  0.41915637    -0.77300
O1498       O  0.90771891  0.14241776  0.40879584    -0.82500
C1499       C  0.84202796  0.08743051  0.37697171     0.98500
C1500       C  0.91029855  0.15387034  0.37498737     1.04400
O1501       O  0.85335503  0.08910867  0.34341824    -0.78200
C1502       C  0.88144328  0.04374115  0.44656406     1.02700
Fe1503     Fe  0.64473690  0.07326833  0.37701588     1.65800
Fe1504     Fe  0.70569410  0.10521990  0.42592540     1.73200
Fe1505     Fe  0.70373946  0.10274215  0.32384655     1.54400
O1506       O  0.68212453  0.06285583  0.30381008    -0.81900
O1507       O  0.73475297  0.14300451  0.40351220    -0.80200
O1508       O  0.64094632  0.04813445  0.32954487    -0.84400
O1509       O  0.64182866  0.10039765  0.33865596    -0.79200
O1510       O  0.73360089  0.09511384  0.34373549    -0.81000
O1511       O  0.68419367  0.12320851  0.44741278    -0.83800
C1512       C  0.65462215  0.11127331  0.30636201     0.97000
C1513       C  0.65682685  0.04547568  0.30556744     1.04400
O1514       O  0.68475940  0.09378524  0.37563011    -1.12700
O1515       O  0.67957627  0.06898895  0.45545835    -0.75200
O1516       O  0.64410636  0.04432917  0.41527354    -0.78700
O1517       O  0.67652133  0.11176278  0.29686778    -0.79400
C1518       C  0.65775229  0.04701473  0.44683329     0.95900
O1519       O  0.64232596  0.09516882  0.42472302    -0.77300
O1520       O  0.72954930  0.08853051  0.40958674    -0.82500
C1521       C  0.74027253  0.15532453  0.36991947     0.98500
C1522       C  0.74063847  0.08882749  0.37628241     1.04400
O1523       O  0.72757977  0.14357395  0.33807116    -0.78200
C1524       C  0.65875570  0.11462084  0.44715481     1.02700
C1525       C  0.76376365  0.08325129  0.37546240    -0.00400
C1526       C  0.77459676  0.08054076  0.41197094    -0.12200
C1527       C  0.79910415  0.08013247  0.41336976     0.01900
C1528       C  0.81348925  0.08232954  0.37744288    -0.00500
C1529       C  0.80140204  0.08261775  0.34079014    -0.12200
C1530       C  0.77703053  0.08318811  0.33936201     0.01800
H1531       H  0.76456319  0.07997392  0.43996833     0.14700
H1532       H  0.81168233  0.08375267  0.31279455     0.14700
C1533       C  0.76707315  0.08484884  0.30014588     0.36400
C1534       C  0.80919498  0.07838375  0.45240212     0.36300
N1535       N  0.75928864  0.08634576  0.26867836    -0.44000
N1536       N  0.81728075  0.07707227  0.48371813    -0.44000
C1537       C  0.81439977  0.23370369  0.37103510    -0.00400
C1538       C  0.80414067  0.21972379  0.33457390    -0.12200
C1539       C  0.77899476  0.19538386  0.33261623     0.01900
C1540       C  0.76355430  0.18399048  0.36800431    -0.00500
C1541       C  0.77251078  0.19928371  0.40360800    -0.12200
C1542       C  0.79730185  0.22409319  0.40527414     0.01800
H1543       H  0.81629535  0.22714577  0.30747713     0.14700
H1544       H  0.76042865  0.19147149  0.43069380     0.14700
C1545       C  0.80445052  0.23896793  0.44262613     0.36400
C1546       C  0.77056043  0.18206640  0.29410320     0.36300
N1547       N  0.80995312  0.25096304  0.47249023    -0.44000
N1548       N  0.76385855  0.17163083  0.26308708    -0.44000
C1549       C  0.91666287  0.18294131  0.37318655    -0.00400
C1550       C  0.91284800  0.19291622  0.33648746    -0.12200
C1551       C  0.91243029  0.21741983  0.33423414     0.01900
C1552       C  0.91630194  0.23303776  0.36932887    -0.00500
C1553       C  0.92278036  0.22447650  0.40523263    -0.12200
C1554       C  0.92308472  0.19983694  0.40749384     0.01800
H1555       H  0.90838240  0.18069049  0.30952704     0.14700
H1556       H  0.92661481  0.23658063  0.43219763     0.14700
C1557       C  0.92930396  0.19228334  0.44577556     0.36400
C1558       C  0.90566041  0.22451600  0.29596749     0.36300
N1559       N  0.93429488  0.18633589  0.47654030    -0.44000
N1560       N  0.90011896  0.23002820  0.26528138    -0.44000
C1561       C  0.51937018  0.14603083  0.02844871    -0.00400
C1562       C  0.99291869  0.13565560  0.04364730    -0.12200
C1563       C  0.97026431  0.12447233  0.01806333     0.01900
C1564       C  0.97383947  0.12304110  0.47631318     0.03700
C1565       C  0.50030324  0.13314597  0.46118865    -0.12200
C1566       C  0.52299882  0.14481197  0.48672257     0.01800
H1567       H  0.98994408  0.13633760  0.07572821     0.14700
H1568       H  0.50328069  0.13202397  0.42921941     0.14700
C1569       C  0.54968545  0.15431583  0.46956471     0.36400
C1570       C  0.94350680  0.11353018  0.03573389     0.36300
N1571       N  0.57109663  0.16193863  0.45593221    -0.44000
N1572       N  0.92208435  0.10475828  0.04994100    -0.44000
C1573       C  0.51885665  0.14727052  0.22533928    -0.00400
C1574       C  0.50819460  0.12015758  0.23847876    -0.12200
C1575       C  0.98612974  0.10808193  0.26493922     0.01900
C1576       C  0.97406595  0.12315325  0.27879847    -0.00500
C1577       C  0.98439614  0.15014208  0.26539861    -0.12200
C1578       C  0.50674106  0.16236174  0.23912209     0.01800
H1579       H  0.51725399  0.10829121  0.22822593     0.14700
H1580       H  0.97507528  0.16175862  0.27566797     0.14700
C1581       C  0.51618937  0.19001318  0.22582273     0.36400
C1582       C  0.97554219  0.07978081  0.27598728     0.36300
N1583       N  0.52383810  0.21216836  0.21505205    -0.44000
N1584       N  0.96696363  0.05711350  0.28484949    -0.44000
C1585       C  0.64350254  0.12358377  0.27825739    -0.00400
C1586       C  0.62793284  0.13453507  0.29354111    -0.12200
C1587       C  0.61666917  0.14592922  0.26797596     0.01900
C1588       C  0.62042777  0.14594825  0.22606016    -0.00500
C1589       C  0.63584000  0.13493589  0.21072807    -0.12200
C1590       C  0.64765668  0.12414096  0.23626042     0.01800
H1591       H  0.62464701  0.13433048  0.32561106     0.14700
H1592       H  0.63886468  0.13498530  0.17859475     0.14700
C1593       C  0.66335425  0.11324381  0.21814975     0.36400
C1594       C  0.60056509  0.15655757  0.28550913     0.36300
N1595       N  0.67607605  0.10469801  0.20359879    -0.44000
N1596       N  0.58772430  0.16511070  0.29963340    -0.44000
C1597       C  0.64710292  0.12672436  0.47479141    -0.00400
C1598       C  0.61999769  0.11011625  0.48760738    -0.12200
C1599       C  0.60758301  0.11999605  0.51353934     0.01900
C1600       C  0.62253360  0.14709674  0.02810051    -0.00500
C1601       C  0.64951552  0.16391658  0.01485679    -0.12200
C1602       C  0.66183451  0.15408528  0.98834403     0.01800
H1603       H  0.60824483  0.08915759  0.47715286     0.14700
H1604       H  0.66105416  0.18493495  0.02513663     0.14700
C1605       C  0.68900372  0.17293326  0.97412230     0.36400
C1606       C  0.57903612  0.10219412  0.52275176     0.36300
N1607       N  0.71069640  0.18821653  0.96257890    -0.44000
N1608       N  0.55612465  0.08791994  0.52976064    -0.44000
C1609       C  0.62479243  0.47758271  0.02647234    -0.00400
C1610       C  0.63560634  0.50408977  0.54204704    -0.12200
C1611       C  0.64718549  0.52702776  0.51682808     0.01900
C1612       C  0.64751294  0.02362550  0.47490473    -0.00500
C1613       C  0.63684369  0.99722210  0.95928381    -0.12200
C1614       C  0.62587992  0.97431971  0.98451092     0.01800
H1615       H  0.63503439  0.50694561  0.57414633     0.14700
H1616       H  0.63710244  0.99446140  0.92710663     0.14700
C1617       C  0.61518226  0.94776100  0.96615183     0.36400
C1618       C  0.65754599  0.55369356  0.53466169     0.36300
N1619       N  0.60678154  0.92652191  0.95139289    -0.44000
N1620       N  0.66590857  0.57506152  0.54896491    -0.44000
C1621       C  0.62540088  0.47714676  0.22336127    -0.00400
C1622       C  0.60801697  0.48573320  0.23933862    -0.12200
C1623       C  0.61755582  0.00748684  0.26640136     0.01900
C1624       C  0.64533876  0.02144323  0.27817545    -0.00500
C1625       C  0.66275594  0.01284226  0.26210401    -0.12200
C1626       C  0.65307990  0.49092756  0.23508942     0.01800
H1627       H  0.58667407  0.47525924  0.23075719     0.14700
H1628       H  0.68411551  0.02335310  0.27051325     0.14700
C1629       C  0.67233294  0.48397379  0.21852766     0.36400
C1630       C  0.59835000  0.01541419  0.28023263     0.36300
N1631       N  0.68797277  0.47869138  0.20520450    -0.44000
N1632       N  0.58284878  0.02164257  0.29116404    -0.44000
C1633       C  0.97832575  0.35232115  0.27861220    -0.00400
C1634       C  0.97333424  0.34891031  0.23711506    -0.12200
C1635       C  0.99475604  0.36001187  0.20934275     0.01900
C1636       C  0.52200964  0.37454943  0.22290890    -0.00500
C1637       C  0.52708711  0.37731802  0.26440797    -0.12200
C1638       C  0.00561441  0.36663990  0.29222063     0.01800
H1639       H  0.95250995  0.33799288  0.22618803     0.14700
H1640       H  0.54794611  0.38841421  0.27518743     0.14700
C1641       C  0.51224402  0.37033166  0.33441570     0.36400
C1642       C  0.98812587  0.35569794  0.16717037     0.36300
N1643       N  0.51759784  0.37335053  0.36820747    -0.44000
N1644       N  0.98278622  0.35226363  0.13339609    -0.44000
C1645       C  0.51976256  0.37192750  0.02788045    -0.00400
C1646       C  0.50421444  0.38482946  0.02261417    -0.12200
C1647       C  0.98129323  0.37369855  0.49762940     0.01900
C1648       C  0.97342162  0.34914414  0.47675091    -0.00500
C1649       C  0.98819232  0.33564349  0.48285023    -0.12200
C1650       C  0.51115663  0.34672143  0.00800988     0.01800
H1651       H  0.51001457  0.40390333  0.03791616     0.14700
H1652       H  0.98206300  0.31657984  0.46728486     0.14700
C1653       C  0.52515072  0.33149514  0.01299939     0.36400
C1654       C  0.96553388  0.38733305  0.49524492     0.36300
N1655       N  0.53636380  0.31927566  0.01698768    -0.44000
N1656       N  0.95279591  0.39813226  0.49363168    -0.44000
C1657       C  0.58027522  0.31575627  0.12780517    -0.00400
C1658       C  0.57705507  0.30221494  0.09107728    -0.12200
C1659       C  0.57676010  0.27730276  0.08902123     0.01900
C1660       C  0.57975869  0.26518818  0.12444127    -0.00500
C1661       C  0.58049620  0.27752998  0.16143435    -0.12200
C1662       C  0.58086871  0.30244156  0.16349169     0.01800
H1663       H  0.57590548  0.31166485  0.06341793     0.14700
H1664       H  0.58210969  0.26839002  0.18913474     0.14700
C1665       C  0.58361368  0.31437097  0.20270782     0.36400
C1666       C  0.57448934  0.26553036  0.04982479     0.36300
N1667       N  0.58586928  0.32385815  0.23418811    -0.44000
N1668       N  0.57264929  0.25617717  0.01834463    -0.44000
C1669       C  0.84912252  0.47471398  0.22415264    -0.00400
C1670       C  0.83273868  0.48539142  0.23731271    -0.12200
C1671       C  0.84288796  0.00752979  0.26410480     0.01900
C1672       C  0.86985821  0.01921673  0.27870803    -0.00500
C1673       C  0.88595628  0.00816737  0.26628332    -0.12200
C1674       C  0.87601972  0.48632273  0.23932744     0.01800
H1675       H  0.81197571  0.47655690  0.22642925     0.14700
H1676       H  0.90667648  0.01691213  0.27734322     0.14700
C1677       C  0.89380506  0.47584803  0.22893315     0.36400
C1678       C  0.82491907  0.01718173  0.27722459     0.36300
N1679       N  0.90817006  0.46758366  0.22068517    -0.44000
N1680       N  0.81048238  0.02484914  0.28785027    -0.44000
C1681       C  0.86767659  0.01958878  0.47324056    -0.00400
C1682       C  0.86759571  0.02378220  0.01471237    -0.12200
C1683       C  0.85782956  0.00182059  0.04167995     0.01900
C1684       C  0.84729404  0.47488476  0.02714583    -0.00500
C1685       C  0.84627906  0.47060634  0.48553404    -0.12200
C1686       C  0.85655233  0.49262741  0.45863374     0.01800
H1687       H  0.87610683  0.04441372  0.02621860     0.14700
H1688       H  0.83811435  0.45002970  0.47399057     0.14700
C1689       C  0.85514864  0.48693651  0.41620794     0.36400
C1690       C  0.85867564  0.00755317  0.08401910     0.36300
N1691       N  0.85399085  0.48232356  0.38223858    -0.44000
N1692       N  0.85942391  0.01219292  0.11793119    -0.44000
C1693       C  0.87126825  0.35071776  0.46876055    -0.00400
C1694       C  0.84968515  0.33282150  0.49404429    -0.12200
C1695       C  0.83783146  0.34275844  0.02132334     0.01900
C1696       C  0.84814606  0.37116143  0.02462825    -0.00500
C1697       C  0.86947027  0.38899284  0.99934635    -0.12200
C1698       C  0.88070655  0.37913652  0.47117130     0.01800
H1699       H  0.84200628  0.31102515  0.49248554     0.14700
H1700       H  0.87713361  0.41079785  0.00122031     0.14700
C1701       C  0.90229466  0.39897760  0.44586326     0.36400
C1702       C  0.81570730  0.32350595  0.04644144     0.36300
N1703       N  0.91948344  0.41486284  0.42543702    -0.44000
N1704       N  0.79792585  0.30814236  0.06655512    -0.44000
C1705       C  0.85190120  0.37329035  0.21944398    -0.00400
C1706       C  0.87844614  0.38996315  0.23379456    -0.12200
C1707       C  0.89030281  0.37978921  0.26040988     0.01900
C1708       C  0.87543278  0.35212338  0.27311364    -0.00500
C1709       C  0.84896523  0.33529543  0.25786155    -0.12200
C1710       C  0.83713318  0.34566266  0.23134422     0.01800
H1711       H  0.88994699  0.41117034  0.22428562     0.14700
H1712       H  0.83739536  0.31397345  0.26675576     0.14700
C1713       C  0.81036077  0.32733433  0.21533595     0.36400
C1714       C  0.91808347  0.39810943  0.27283752     0.36300
N1715       N  0.78900892  0.31257840  0.20223279    -0.44000
N1716       N  0.94035116  0.41285952  0.28264235    -0.44000
C1717       C  0.73206368  0.41464399  0.11938975    -0.00400
C1718       C  0.72047740  0.41604614  0.15588640    -0.12200
C1719       C  0.69610750  0.41664219  0.15721732     0.01900
C1720       C  0.68216611  0.41545123  0.12123256    -0.00500
C1721       C  0.69489878  0.41633968  0.08457237    -0.12200
C1722       C  0.71960596  0.41617241  0.08327140     0.01800
H1723       H  0.73007928  0.41587114  0.18395474     0.14700
H1724       H  0.68502699  0.41609203  0.05657259     0.14700
C1725       C  0.73100307  0.41674216  0.04428785     0.36400
C1726       C  0.68591062  0.41791492  0.19636596     0.36300
N1727       N  0.74022908  0.41738011  0.01306618    -0.44000
N1728       N  0.67786377  0.41891866  0.22783908    -0.44000
C1729       C  0.68054396  0.26374260  0.12999819    -0.00400
C1730       C  0.69142950  0.27754922  0.16631127    -0.12200
C1731       C  0.71621578  0.30234051  0.16743400     0.01900
C1732       C  0.73102770  0.31385502  0.13153492    -0.00500
C1733       C  0.72128145  0.29885983  0.09582795    -0.12200
C1734       C  0.69645722  0.27410211  0.09471749     0.01800
H1735       H  0.67977273  0.26989166  0.19374604     0.14700
H1736       H  0.73265887  0.30693334  0.06825033     0.14700
C1737       C  0.68781794  0.26019768  0.05664964     0.36400
C1738       C  0.72456687  0.31625534  0.20553426     0.36300
N1739       N  0.68100200  0.24916900  0.02605843    -0.44000
N1740       N  0.73108775  0.32732175  0.23613074    -0.44000
Fe1741     Fe  0.85057722  0.42454199  0.62328881     1.65800
Fe1742     Fe  0.79111671  0.39442743  0.67553669     1.73200
Fe1743     Fe  0.79043304  0.39221921  0.57370010     1.54400
O1744       O  0.81748844  0.42825414  0.54385603    -0.81900
O1745       O  0.76774377  0.35372595  0.66111507    -0.80200
O1746       O  0.85066412  0.45388400  0.58678000    -0.84400
O1747       O  0.85355717  0.40363006  0.57387022    -0.79200
O1748       O  0.76751095  0.40993107  0.58828314    -0.81000
O1749       O  0.81849086  0.38502211  0.70278408    -0.83800
C1750       C  0.83695290  0.38304861  0.55318453     0.97000
C1751       C  0.83782276  0.45101993  0.55434987     1.04400
O1752       O  0.81065446  0.40365312  0.62432567    -1.12700
O1753       O  0.81230823  0.43423282  0.69619614    -0.75200
O1754       O  0.85385864  0.44862024  0.67215090    -0.78700
O1755       O  0.81136479  0.37319455  0.55486497    -0.79400
C1756       C  0.83772378  0.45122438  0.69572866     0.95900
O1757       O  0.85338500  0.39703121  0.66052021    -0.77300
O1758       O  0.76114047  0.40219006  0.65391033    -0.82500
C1759       C  0.75464075  0.34232687  0.62946126     0.98500
C1760       C  0.75521566  0.40901413  0.62054045     1.04400
O1761       O  0.76021100  0.35484731  0.59602734    -0.78200
C1762       C  0.84036894  0.38552949  0.69239631     1.02700
Fe1763     Fe  0.57258237  0.42624689  0.62440359     1.65800
Fe1764     Fe  0.60321117  0.39681866  0.67519999     1.73200
Fe1765     Fe  0.60194983  0.39554182  0.57302476     1.54400
O1766       O  0.56237742  0.37815403  0.55190707    -0.81900
O1767       O  0.64052541  0.40429873  0.65393363    -0.80200
O1768       O  0.54727286  0.40436367  0.57727242    -0.84400
O1769       O  0.60003838  0.45574151  0.58562111    -0.79200
O1770       O  0.59281132  0.35738133  0.59388747    -0.81000
O1771       O  0.62191019  0.43663236  0.69580375    -0.83800
C1772       C  0.61173316  0.45385099  0.55426873     0.97000
C1773       C  0.54455923  0.38543295  0.55395367     1.04400
O1774       O  0.59266734  0.40626055  0.62414189    -1.12700
O1775       O  0.56724704  0.38766342  0.70421339    -0.75200
O1776       O  0.54325704  0.39852463  0.66292271    -0.78700
O1777       O  0.61240525  0.43234103  0.54553235    -0.79400
C1778       C  0.54544588  0.38749298  0.69481132     0.95900
O1779       O  0.59450030  0.45095361  0.67210157    -0.77300
O1780       O  0.58576052  0.35612643  0.65963553    -0.82500
C1781       C  0.65362768  0.41058500  0.62114139     0.98500
C1782       C  0.58616346  0.34464376  0.62715381     1.04400
O1783       O  0.64267385  0.41140494  0.58827584    -0.78200
C1784       C  0.61358221  0.45369640  0.69512272     1.02700
Fe1785     Fe  0.56986894  0.14544318  0.62706588     1.65800
Fe1786     Fe  0.60070366  0.20572461  0.57569850     1.73200
Fe1787     Fe  0.59955130  0.20569655  0.67801155     1.54400
O1788       O  0.56004266  0.18415172  0.69912410    -0.81900
O1789       O  0.63876927  0.23477410  0.59638690    -0.80200
O1790       O  0.54501988  0.14250908  0.67432721    -0.84400
O1791       O  0.59713533  0.14350316  0.66598315    -0.79200
O1792       O  0.59146081  0.23525697  0.65722547    -0.81000
O1793       O  0.61806010  0.18374862  0.55410234    -0.83800
C1794       C  0.60813228  0.15681182  0.69779025     0.97000
C1795       C  0.54259565  0.15883060  0.69774828     1.04400
O1796       O  0.59004230  0.18563047  0.62690323    -1.12700
O1797       O  0.56411239  0.17930794  0.54776129    -0.75200
O1798       O  0.54058121  0.14349413  0.58817892    -0.78700
O1799       O  0.60887266  0.17898869  0.70652451    -0.79400
C1800       C  0.54267496  0.15700908  0.55660047     0.95900
O1801       O  0.59173855  0.14229502  0.57988552    -0.77300
O1802       O  0.58468918  0.23019493  0.59151367    -0.82500
C1803       C  0.65163089  0.24093574  0.62941440     0.98500
C1804       C  0.58515308  0.24186724  0.62422812     1.04400
O1805       O  0.64019409  0.22948807  0.66227196    -0.78200
C1806       C  0.61013070  0.15842109  0.55574808     1.02700
Fe1807     Fe  0.92557658  0.35189065  0.87456180     1.65800
Fe1808     Fe  0.89569925  0.29271589  0.82174660     1.73200
Fe1809     Fe  0.89434114  0.29095117  0.92414369     1.54400
O1810       O  0.93326273  0.31243411  0.94810695    -0.81900
O1811       O  0.85718817  0.26315202  0.84021652    -0.80200
O1812       O  0.94864239  0.35438332  0.92404419    -0.84400
O1813       O  0.89682743  0.35311125  0.91074363    -0.79200
O1814       O  0.90369716  0.26191529  0.90359726    -0.81000
O1815       O  0.87854337  0.31479416  0.79996162    -0.83800
C1816       C  0.88438722  0.33959123  0.94181503     0.97000
C1817       C  0.95041016  0.33787420  0.94794835     1.04400
O1818       O  0.90521918  0.31178177  0.87355236    -1.12700
O1819       O  0.93286985  0.31974143  0.79571363    -0.75200
O1820       O  0.95613769  0.35406143  0.83827189    -0.78700
O1821       O  0.88332148  0.31722986  0.95127626    -0.79400
C1822       C  0.95455505  0.34129273  0.80617093     0.95900
O1823       O  0.90564670  0.35599133  0.82541453    -0.77300
O1824       O  0.91169110  0.26845046  0.83801978    -0.82500
C1825       C  0.84351807  0.25627820  0.87258764     0.98500
C1826       C  0.91067128  0.25613627  0.87038890     1.04400
O1827       O  0.85425111  0.26699188  0.90600765    -0.78200
C1828       C  0.88717836  0.34025572  0.80117272     1.02700
Fe1829     Fe  0.92261798  0.07096593  0.87692537     1.65800
Fe1830     Fe  0.89361709  0.10262314  0.92777201     1.73200
Fe1831     Fe  0.89257147  0.10116190  0.82487304     1.54400
O1832       O  0.93059347  0.11477918  0.79953972    -0.81900
O1833       O  0.85472287  0.09158070  0.90980114    -0.80200
O1834       O  0.95034859  0.09575931  0.83451531    -0.84400
O1835       O  0.89835223  0.04381820  0.83316295    -0.79200
O1836       O  0.90576472  0.14087781  0.84221315    -0.81000
O1837       O  0.87825415  0.06412389  0.95302177    -0.83800
C1838       C  0.88233734  0.04316177  0.80603606     0.97000
C1839       C  0.95033488  0.11069850  0.80612269     1.04400
O1840       O  0.90294309  0.09159386  0.87651833    -1.12700
O1841       O  0.93108373  0.11546192  0.95355642    -0.75200
O1842       O  0.95013835  0.09516064  0.92060287    -0.78700
O1843       O  0.87761708  0.06259948  0.80043504    -0.79400
C1844       C  0.95035258  0.11057679  0.94836315     0.95900
O1845       O  0.89687584  0.04354776  0.91917026    -0.77300
O1846       O  0.90774052  0.14243132  0.90878647    -0.82500
C1847       C  0.84204139  0.08743745  0.87695923     0.98500
C1848       C  0.91030602  0.15387632  0.87497587     1.04400
O1849       O  0.85336192  0.08909712  0.84340598    -0.78200
C1850       C  0.88146048  0.04375735  0.94657260     1.02700
Fe1851     Fe  0.64475352  0.07327896  0.87700827     1.65800
Fe1852     Fe  0.70571463  0.10523829  0.92590130     1.73200
Fe1853     Fe  0.70375022  0.10274624  0.82382042     1.54400
O1854       O  0.68212494  0.06285989  0.80378840    -0.81900
O1855       O  0.73476819  0.14301827  0.90347356    -0.80200
O1856       O  0.64095158  0.04813907  0.82954059    -0.84400
O1857       O  0.64184247  0.10040636  0.83864433    -0.79200
O1858       O  0.73360781  0.09510994  0.84370443    -0.81000
O1859       O  0.68421985  0.12323397  0.94738531    -0.83800
C1860       C  0.65463767  0.11128860  0.80635321     0.97000
C1861       C  0.65682763  0.04547997  0.80555505     1.04400
O1862       O  0.68477576  0.09379601  0.87561009    -1.12700
O1863       O  0.67959972  0.06901026  0.95545372    -0.75200
O1864       O  0.64412924  0.04434329  0.91527333    -0.78700
O1865       O  0.67653552  0.11177649  0.79685519    -0.79400
C1866       C  0.65777662  0.04703271  0.94683409     0.95900
O1867       O  0.64234988  0.09518384  0.92471269    -0.77300
O1868       O  0.72956787  0.08854781  0.90956159    -0.82500
C1869       C  0.74028916  0.15533447  0.86987803     0.98500
C1870       C  0.74065128  0.08883473  0.87625609     1.04400
O1871       O  0.72760203  0.14357882  0.83802956    -0.78200
C1872       C  0.65878103  0.11464052  0.94713573     1.02700
C1873       C  0.76377816  0.08326137  0.87544274    -0.00400
C1874       C  0.77462141  0.08057474  0.91195649    -0.12200
C1875       C  0.79913148  0.08017284  0.91336095     0.01900
C1876       C  0.81350487  0.08234188  0.87743262    -0.00500
C1877       C  0.80140968  0.08261003  0.84077748    -0.12200
C1878       C  0.77703957  0.08318324  0.83934477     0.01800
H1879       H  0.76459586  0.08002629  0.93995327     0.14700
H1880       H  0.81168385  0.08372951  0.81278266     0.14700
C1881       C  0.76708091  0.08483624  0.80012604     0.36400
C1882       C  0.80924063  0.07846910  0.95240109     0.36300
N1883       N  0.75929709  0.08632909  0.76865599    -0.44000
N1884       N  0.81734207  0.07719714  0.98372381    -0.44000
C1885       C  0.81441014  0.23371233  0.87101038    -0.00400
C1886       C  0.80414628  0.21974640  0.83454026    -0.12200
C1887       C  0.77899844  0.19540896  0.83257494     0.01900
C1888       C  0.76356498  0.18400298  0.86796504    -0.00500
C1889       C  0.77252340  0.19928706  0.90357630    -0.12200
C1890       C  0.79731422  0.22409464  0.90524998     0.01800
H1891       H  0.81629712  0.22717870  0.80744160     0.14700
H1892       H  0.76044345  0.19146836  0.93066304     0.14700
C1893       C  0.80446559  0.23895824  0.94261161     0.36400
C1894       C  0.77055189  0.18211198  0.79404954     0.36300
N1895       N  0.80997106  0.25094529  0.97248298    -0.44000
N1896       N  0.76384107  0.17169593  0.76302178    -0.44000
C1897       C  0.91666707  0.18294578  0.87316734    -0.00400
C1898       C  0.91281822  0.19290388  0.83647639    -0.12200
C1899       C  0.91239776  0.21740568  0.83422511     0.01900
C1900       C  0.91630552  0.23304101  0.86931114    -0.00500
C1901       C  0.92281401  0.22449555  0.90520296    -0.12200
C1902       C  0.92311835  0.19985576  0.90746357     0.01800
H1903       H  0.90832552  0.18066518  0.80952498     0.14700
H1904       H  0.92667254  0.23661284  0.93215955     0.14700
C1905       C  0.92936804  0.19231699  0.94573404     0.36400
C1906       C  0.90557994  0.22447872  0.79597753     0.36300
N1907       N  0.93438309  0.18638234  0.97649080    -0.44000
N1908       N  0.89999852  0.22997172  0.76530786    -0.44000
C1909       C  0.51936080  0.14602475  0.52845849    -0.00400
C1910       C  0.99290533  0.13560516  0.54366805    -0.12200
C1911       C  0.97024977  0.12441488  0.51808357     0.01900
C1912       C  0.97384999  0.12305602  0.97630062     0.03700
C1913       C  0.50030979  0.13312287  0.96118860    -0.12200
C1914       C  0.52300514  0.14478355  0.98672048     0.01800
H1915       H  0.98992620  0.13625439  0.57575386     0.14700
H1916       H  0.50328383  0.13197231  0.92922488     0.14700
C1917       C  0.54968690  0.15424578  0.96957173     0.36400
C1918       C  0.94348715  0.11341941  0.53575788     0.36300
N1919       N  0.57109390  0.16183511  0.95594607    -0.44000
N1920       N  0.92206050  0.10460334  0.54996826    -0.44000
C1921       C  0.51886043  0.14727684  0.72534986    -0.00400
C1922       C  0.50822806  0.12017831  0.73853515    -0.12200
C1923       C  0.98616780  0.10810454  0.76498907     0.01900
C1924       C  0.97407919  0.12316270  0.77880690    -0.00500
C1925       C  0.98438488  0.15013962  0.76536715    -0.12200
C1926       C  0.50671863  0.16235369  0.73908363     0.01800
H1927       H  0.51730900  0.10832434  0.72831570     0.14700
H1928       H  0.97504448  0.16174543  0.77560255     0.14700
C1929       C  0.51613227  0.18998550  0.72571981     0.36400
C1930       C  0.97560456  0.07981270  0.77607068     0.36300
N1931       N  0.52375228  0.21212416  0.71489484    -0.44000
N1932       N  0.96704541  0.05715251  0.78495804    -0.44000
C1933       C  0.64352107  0.12360828  0.77825641    -0.00400
C1934       C  0.62790274  0.13450581  0.79354047    -0.12200
C1935       C  0.61663019  0.14589429  0.76798094     0.01900
C1936       C  0.62043535  0.14596810  0.72607148    -0.00500
C1937       C  0.63589965  0.13501571  0.71073801    -0.12200
C1938       C  0.64772024  0.12422186  0.73626397     0.01800
H1939       H  0.62458008  0.13425817  0.82560545     0.14700
H1940       H  0.63895862  0.13510830  0.67860817     0.14700
C1941       C  0.66346531  0.11338125  0.71814543     0.36400
C1942       C  0.60046187  0.15645140  0.78550650     0.36300
N1943       N  0.67622324  0.10487999  0.70358493    -0.44000
N1944       N  0.58756642  0.16494447  0.79962282    -0.44000
C1945       C  0.64712681  0.12673753  0.97477752    -0.00400
C1946       C  0.62004439  0.11010261  0.98766719    -0.12200
C1947       C  0.60762379  0.11997301  0.01360338     0.01900
C1948       C  0.62252066  0.14709799  0.52810910    -0.00500
C1949       C  0.64952297  0.16389310  0.51493724    -0.12200
C1950       C  0.66183711  0.15405523  0.48842742     0.01800
H1951       H  0.60831432  0.08912864  0.97726765     0.14700
H1952       H  0.66108167  0.18489686  0.52527349     0.14700
C1953       C  0.68903353  0.17288305  0.47428439     0.36400
C1954       C  0.57909773  0.10213063  0.02289857     0.36300
N1955       N  0.71074881  0.18815055  0.46280420    -0.44000
N1956       N  0.55620280  0.08781989  0.02997315    -0.44000
C1957       C  0.62477861  0.47757226  0.52646976    -0.00400
C1958       C  0.63561429  0.50410026  0.04204931    -0.12200
C1959       C  0.64720137  0.52704102  0.01683212     0.01900
C1960       C  0.64754019  0.02364272  0.97490974    -0.00500
C1961       C  0.63680705  0.99720432  0.45927749    -0.12200
C1962       C  0.62584636  0.97430383  0.48450604     0.01800
H1963       H  0.63503220  0.50695408  0.07414723     0.14700
H1964       H  0.63705588  0.99444186  0.42709918     0.14700
C1965       C  0.61513075  0.94774230  0.46614817     0.36400
C1966       C  0.65756100  0.55370599  0.03466785     0.36300
N1967       N  0.60671445  0.92650082  0.45139027    -0.44000
N1968       N  0.66592346  0.57507268  0.04897546    -0.44000
C1969       C  0.62539390  0.47714595  0.72335628    -0.00400
C1970       C  0.60801079  0.48573415  0.73933283    -0.12200
C1971       C  0.61755285  0.00749196  0.76639181     0.01900
C1972       C  0.64533579  0.02144649  0.77816568    -0.00500
C1973       C  0.66275127  0.01284375  0.76209515    -0.12200
C1974       C  0.65307369  0.49092843  0.73508111     0.01800
H1975       H  0.58666779  0.47526077  0.73075206     0.14700
H1976       H  0.68411113  0.02335435  0.77050275     0.14700
C1977       C  0.67232852  0.48397917  0.71851416     0.36400
C1978       C  0.59835096  0.01542656  0.78021595     0.36300
N1979       N  0.68797131  0.47870259  0.70518647    -0.44000
N1980       N  0.58285310  0.02166142  0.79114011    -0.44000
C1981       C  0.97832720  0.35232271  0.77859010    -0.00400
C1982       C  0.97333339  0.34891951  0.73709278    -0.12200
C1983       C  0.99475442  0.36001538  0.70931886     0.01900
C1984       C  0.52200744  0.37453991  0.72287739    -0.00500
C1985       C  0.52708615  0.37730073  0.76437584    -0.12200
C1986       C  0.00561621  0.36662672  0.79219665     0.01800
H1987       H  0.95250835  0.33801200  0.72616745     0.14700
H1988       H  0.54794570  0.38838743  0.77515507     0.14700
C1989       C  0.51224724  0.37031281  0.83438360     0.36400
C1990       C  0.98812097  0.35570940  0.66714648     0.36300
N1991       N  0.51760411  0.37332617  0.86817441    -0.44000
N1992       N  0.98277718  0.35228087  0.63337298    -0.44000
C1993       C  0.51977595  0.37193214  0.52785420    -0.00400
C1994       C  0.50419647  0.38480729  0.52265395    -0.12200
C1995       C  0.98130227  0.37369998  0.99760823     0.01900
C1996       C  0.97341955  0.34913316  0.97675726    -0.00500
C1997       C  0.98817207  0.33561765  0.98289958    -0.12200
C1998       C  0.51120118  0.34675488  0.50791315     0.01800
H1999       H  0.50997321  0.40385966  0.53800404     0.14700
H2000       H  0.98203138  0.31654168  0.96736315     0.14700
C2001       C  0.52523857  0.33156315  0.51280246     0.36400
C2002       C  0.96555533  0.38734614  0.99519624     0.36300
N2003       N  0.53648738  0.31937214  0.51670740    -0.44000
N2004       N  0.95282742  0.39815525  0.99356396    -0.44000
C2005       C  0.58027638  0.31576023  0.62780843    -0.00400
C2006       C  0.57706858  0.30222462  0.59107908    -0.12200
C2007       C  0.57676783  0.27731031  0.58902615     0.01900
C2008       C  0.57975253  0.26519047  0.62445003    -0.00500
C2009       C  0.58047405  0.27752482  0.66144332    -0.12200
C2010       C  0.58084617  0.30243611  0.66349829     0.01800
H2011       H  0.57593053  0.31167914  0.56341721     0.14700
H2012       H  0.58207172  0.26837749  0.68914617     0.14700
C2013       C  0.58355619  0.31435068  0.70271773     0.36400
C2014       C  0.57450153  0.26553906  0.54983009     0.36300
N2015       N  0.58578060  0.32382476  0.73420092    -0.44000
N2016       N  0.57266298  0.25618590  0.51835033    -0.44000
C2017       C  0.84915374  0.47472287  0.72413766    -0.00400
C2018       C  0.83278177  0.48542398  0.73725306    -0.12200
C2019       C  0.84292894  0.00756002  0.76404756     0.01900
C2020       C  0.86988611  0.01922277  0.77869692    -0.00500
C2021       C  0.88597423  0.00815302  0.76630886    -0.12200
C2022       C  0.87603828  0.48630816  0.73935367     0.01800
H2023       H  0.81202919  0.47660880  0.72633328     0.14700
H2024       H  0.90668561  0.01688077  0.77739972     0.14700
C2025       C  0.89380958  0.47580974  0.72899669     0.36400
C2026       C  0.82497108  0.01723791  0.77711574     0.36300
N2027       N  0.90816341  0.46752651  0.72077817    -0.44000
N2028       N  0.81054382  0.02492748  0.78769852    -0.44000
C2029       C  0.86769750  0.01960787  0.97325400    -0.00400
C2030       C  0.86756403  0.02376002  0.51469825    -0.12200
C2031       C  0.85779765  0.00179772  0.54166395     0.01900
C2032       C  0.84728314  0.47486521  0.52713078    -0.00500
C2033       C  0.84628611  0.47062521  0.98554923    -0.12200
C2034       C  0.85656941  0.49264625  0.95864896     0.01800
H2035       H  0.87606371  0.04438980  0.52620615     0.14700
H2036       H  0.83811448  0.45004775  0.97400584     0.14700
C2037       C  0.85518188  0.48695518  0.91622487     0.36400
C2038       C  0.85861301  0.00752429  0.58400089     0.36300
N2039       N  0.85404190  0.48234312  0.88225700    -0.44000
N2040       N  0.85933242  0.01215785  0.61791127    -0.44000
C2041       C  0.87128787  0.35073241  0.96876629    -0.00400
C2042       C  0.84969551  0.33283711  0.99403778    -0.12200
C2043       C  0.83782364  0.34274123  0.52133548     0.01900
C2044       C  0.84813142  0.37114337  0.52463001    -0.00500
C2045       C  0.86944302  0.38897499  0.49933139    -0.12200
C2046       C  0.88073582  0.37915287  0.97118966     0.01800
H2047       H  0.84200923  0.31103954  0.99247076     0.14700
H2048       H  0.87709921  0.41077901  0.50119723     0.14700
C2049       C  0.90233442  0.39899357  0.94589552     0.36400
C2050       C  0.81571164  0.32348876  0.54647122     0.36300
N2051       N  0.91953187  0.41487917  0.92548097    -0.44000
N2052       N  0.79794024  0.30812438  0.56659877    -0.44000
C2053       C  0.85191520  0.37328379  0.71942954    -0.00400
C2054       C  0.87847691  0.38994118  0.73373029    -0.12200
C2055       C  0.89032886  0.37976486  0.76034975     0.01900
C2056       C  0.87543806  0.35211237  0.77310578    -0.00500
C2057       C  0.84895557  0.33529653  0.75789820    -0.12200
C2058       C  0.83712759  0.34566624  0.73137761     0.01800
H2059       H  0.88999416  0.41113890  0.72418183     0.14700
H2060       H  0.83737114  0.31398291  0.76683111     0.14700
C2061       C  0.81033842  0.32734843  0.71541316     0.36400
C2062       C  0.91812495  0.39806598  0.77273023     0.36300
N2063       N  0.78897323  0.31260018  0.70234423    -0.44000
N2064       N  0.94040463  0.41279837  0.78250091    -0.44000
C2065       C  0.73207270  0.41464018  0.61938358    -0.00400
C2066       C  0.72049394  0.41606095  0.65587645    -0.12200
C2067       C  0.69612442  0.41665856  0.65720333     0.01900
C2068       C  0.68217465  0.41544932  0.62121914    -0.00500
C2069       C  0.69489709  0.41631344  0.58455930    -0.12200
C2070       C  0.71960401  0.41614476  0.58326148     0.01800
H2071       H  0.73010292  0.41590186  0.68394574     0.14700
H2072       H  0.68501756  0.41604807  0.55655895     0.14700
C2073       C  0.73098912  0.41668748  0.54427810     0.36400
C2074       C  0.68593782  0.41795492  0.69634844     0.36300
N2075       N  0.74020595  0.41730390  0.51305681    -0.44000
N2076       N  0.67790011  0.41897781  0.72781973    -0.44000
C2077       C  0.68054145  0.26375219  0.63002276    -0.00400
C2078       C  0.69142877  0.27755431  0.66633948    -0.12200
C2079       C  0.71621884  0.30234253  0.66746726     0.01900
C2080       C  0.73103013  0.31385971  0.63156912    -0.00500
C2081       C  0.72128168  0.29886886  0.59585914    -0.12200
C2082       C  0.69645596  0.27411369  0.59474401     0.01800
H2083       H  0.67977238  0.26989435  0.69377411     0.14700
H2084       H  0.73265952  0.30694355  0.56828216     0.14700
C2085       C  0.68781852  0.26021325  0.55667333     0.36400
C2086       C  0.72457764  0.31624950  0.70557258     0.36300
N2087       N  0.68100583  0.24918829  0.52607911    -0.44000
N2088       N  0.73110515  0.32730839  0.73617402    -0.44000
Fe2089     Fe  0.85056781  0.92454719  0.12329913     1.65800
Fe2090     Fe  0.79109915  0.89441882  0.17552783     1.73200
Fe2091     Fe  0.79043008  0.89222897  0.07368658     1.54400
O2092       O  0.81748365  0.92827517  0.04386449    -0.81900
O2093       O  0.76773574  0.85372103  0.16108503    -0.80200
O2094       O  0.85066354  0.95389243  0.08678990    -0.84400
O2095       O  0.85356185  0.90363992  0.07388328    -0.79200
O2096       O  0.76749623  0.90992811  0.08827710    -0.81000
O2097       O  0.81847033  0.88501444  0.20278323    -0.83800
C2098       C  0.83696286  0.88306709  0.05317781     0.97000
C2099       C  0.83782353  0.95103629  0.05436169     1.04400
O2100       O  0.81064460  0.90365531  0.12432060    -1.12700
O2101       O  0.81228076  0.93421961  0.19620788    -0.75200
O2102       O  0.85383228  0.94862009  0.17215838    -0.78700
O2103       O  0.81137440  0.87321843  0.05483644    -0.79400
C2104       C  0.83769476  0.95121700  0.19574013     0.95900
O2105       O  0.85337424  0.89703756  0.16053462    -0.77300
O2106       O  0.76112501  0.90218140  0.15390242    -0.82500
C2107       C  0.75463774  0.84232328  0.12942729     0.98500
C2108       C  0.75520216  0.90901046  0.12053623     1.04400
O2109       O  0.76021040  0.85484633  0.09599479    -0.78200
C2110       C  0.84035414  0.88553118  0.19240554     1.02700
Fe2111     Fe  0.57257949  0.92625128  0.12441432     1.65800
Fe2112     Fe  0.60320170  0.89681140  0.17520658     1.73200
Fe2113     Fe  0.60194306  0.89554280  0.07302784     1.54400
O2114       O  0.56237194  0.87816237  0.05190498    -0.81900
O2115       O  0.64051418  0.90429291  0.15393995    -0.80200
O2116       O  0.54725592  0.90435561  0.07730188    -0.84400
O2117       O  0.60002834  0.95574191  0.08561099    -0.79200
O2118       O  0.59279850  0.85737699  0.09388332    -0.81000
O2119       O  0.62190216  0.93662330  0.19582075    -0.83800
C2120       C  0.61173492  0.95385654  0.05426804     0.97000
C2121       C  0.54454655  0.88543109  0.05397276     1.04400
O2122       O  0.59265978  0.90625938  0.12414902    -1.12700
O2123       O  0.56724121  0.88765565  0.20422827    -0.75200
O2124       O  0.54325995  0.89854111  0.16295830    -0.78700
O2125       O  0.61241047  0.93234743  0.04553825    -0.79400
C2126       C  0.54544599  0.88750020  0.19483963     0.95900
O2127       O  0.59451366  0.95096502  0.17209481    -0.77300
O2128       O  0.58575056  0.85611927  0.15963284    -0.82500
C2129       C  0.65361760  0.91058102  0.12114962     0.98500
C2130       C  0.58615462  0.84463834  0.12714933     1.04400
O2131       O  0.64266478  0.91140015  0.08828307    -0.78200
C2132       C  0.61358690  0.95369746  0.19512638     1.02700
Fe2133     Fe  0.56986929  0.64543629  0.12705067     1.65800
Fe2134     Fe  0.60070710  0.70571976  0.07568339     1.73200
Fe2135     Fe  0.59955628  0.70568800  0.17799523     1.54400
O2136       O  0.56004640  0.68414398  0.19911307    -0.81900
O2137       O  0.63877085  0.73476899  0.09636887    -0.80200
O2138       O  0.54501811  0.64250166  0.17431316    -0.84400
O2139       O  0.59713128  0.64348832  0.16596792    -0.79200
O2140       O  0.59146838  0.73525190  0.15720984    -0.81000
O2141       O  0.61806366  0.68374386  0.05408807    -0.83800
C2142       C  0.60813040  0.65679683  0.19777420     0.97000
C2143       C  0.54259578  0.65882332  0.19773744     1.04400
O2144       O  0.59004508  0.68562353  0.12688780    -1.12700
O2145       O  0.56412015  0.67930525  0.04774535    -0.75200
O2146       O  0.54058503  0.64349394  0.08816629    -0.78700
O2147       O  0.60887601  0.67897705  0.20650354    -0.79400
C2148       C  0.54268184  0.65700953  0.05658796     0.95900
O2149       O  0.59174207  0.64229074  0.07987050    -0.77300
O2150       O  0.58469121  0.73018987  0.09149899    -0.82500
C2151       C  0.65163457  0.74092648  0.12939351     0.98500
C2152       C  0.58515884  0.74186338  0.12421431     1.04400
O2153       O  0.64019967  0.72947618  0.16225105    -0.78200
C2154       C  0.61013621  0.65841661  0.05573466     1.02700
Fe2155     Fe  0.92556744  0.85189140  0.37456880     1.65800
Fe2156     Fe  0.89568799  0.79271460  0.32175495     1.73200
Fe2157     Fe  0.89434126  0.79095055  0.42415481     1.54400
O2158       O  0.93326369  0.81244370  0.44811301    -0.81900
O2159       O  0.85716948  0.76316330  0.34022638    -0.80200
O2160       O  0.94863615  0.85439100  0.42404983    -0.84400
O2161       O  0.89681431  0.85310314  0.41074633    -0.79200
O2162       O  0.90370796  0.76192269  0.40361568    -0.81000
O2163       O  0.87854729  0.81480534  0.29995651    -0.83800
C2164       C  0.88437356  0.83958109  0.44181541     0.97000
C2165       C  0.95040904  0.83788409  0.44795121     1.04400
O2166       O  0.90521211  0.81178066  0.37356038    -1.12700
O2167       O  0.93286902  0.81973236  0.29573530    -0.75200
O2168       O  0.95612912  0.85406569  0.33827909    -0.78700
O2169       O  0.88331243  0.81722258  0.45128004    -0.79400
C2170       C  0.95455145  0.84128953  0.30618823     0.95900
O2171       O  0.90564051  0.85599802  0.32542490    -0.77300
O2172       O  0.91166041  0.76843062  0.33802826    -0.82500
C2173       C  0.84350806  0.75627444  0.37260655     0.98500
C2174       C  0.91066325  0.75613089  0.37040226     1.04400
O2175       O  0.85424970  0.76697490  0.40602907    -0.78200
C2176       C  0.88717724  0.84026584  0.30117585     1.02700
Fe2177     Fe  0.92260595  0.57095906  0.37692327     1.65800
Fe2178     Fe  0.89360367  0.60261032  0.42778077     1.73200
Fe2179     Fe  0.89255963  0.60115907  0.32487952     1.54400
O2180       O  0.93057825  0.61476640  0.29953396    -0.81900
O2181       O  0.85470563  0.59156185  0.40981495    -0.80200
O2182       O  0.95034159  0.59575819  0.33451817    -0.84400
O2183       O  0.89834028  0.54381903  0.33315355    -0.79200
O2184       O  0.90576670  0.64087760  0.34222098    -0.81000
O2185       O  0.87824326  0.56411016  0.45302409    -0.83800
C2186       C  0.88231417  0.54315744  0.30604125     0.97000
C2187       C  0.95032339  0.61069179  0.30611981     1.04400
O2188       O  0.90293160  0.59158746  0.37652277    -1.12700
O2189       O  0.93107380  0.61545106  0.45356669    -0.75200
O2190       O  0.95012572  0.59514721  0.42061086    -0.78700
O2191       O  0.87758852  0.56259218  0.30044799    -0.79400
C2192       C  0.95034163  0.61056345  0.44837307     0.95900
O2193       O  0.89685693  0.54353254  0.41915766    -0.77300
O2194       O  0.90772129  0.64241816  0.40879654    -0.82500
C2195       C  0.84202790  0.58742999  0.37697148     0.98500
C2196       C  0.91029851  0.65386996  0.37498804     1.04400
O2197       O  0.85335392  0.58910579  0.34341788    -0.78200
C2198       C  0.88144318  0.54374098  0.44656402     1.02700
Fe2199     Fe  0.64473760  0.57326846  0.37701720     1.65800
Fe2200     Fe  0.70569473  0.60522039  0.42592651     1.73200
Fe2201     Fe  0.70374006  0.60274265  0.32384786     1.54400
O2202       O  0.68212541  0.56285623  0.30381171    -0.81900
O2203       O  0.73475386  0.64300473  0.40351306    -0.80200
O2204       O  0.64094697  0.54813505  0.32954555    -0.84400
O2205       O  0.64182905  0.60039793  0.33865778    -0.79200
O2206       O  0.73360185  0.59511471  0.34373691    -0.81000
O2207       O  0.68419448  0.62320939  0.44741324    -0.83800
C2208       C  0.65462229  0.61127335  0.30636352     0.97000
C2209       C  0.65682764  0.54547630  0.30556841     1.04400
O2210       O  0.68476005  0.59378565  0.37563132    -1.12700
O2211       O  0.67957681  0.56898968  0.45545985    -0.75200
O2212       O  0.64410768  0.54432922  0.41527416    -0.78700
O2213       O  0.67652145  0.61176276  0.29686920    -0.79400
C2214       C  0.65775337  0.54701508  0.44683431     0.95900
O2215       O  0.64232664  0.59516846  0.42472494    -0.77300
O2216       O  0.72954946  0.58853046  0.40958801    -0.82500
C2217       C  0.74027318  0.65532491  0.36992050     0.98500
C2218       C  0.74063886  0.58882765  0.37628379     1.04400
O2219       O  0.72758003  0.64357454  0.33807231    -0.78200
C2220       C  0.65875636  0.61462101  0.44715598     1.02700
C2221       C  0.76376367  0.58325090  0.37546391    -0.00400
C2222       C  0.77459797  0.58054233  0.41197257    -0.12200
C2223       C  0.79910522  0.58013371  0.41337085     0.01900
C2224       C  0.81348916  0.58232895  0.37744348    -0.00500
C2225       C  0.80140065  0.58261502  0.34079090    -0.12200
C2226       C  0.77702895  0.58318513  0.33936328     0.01800
H2227       H  0.76456556  0.57997721  0.43996997     0.14700
H2228       H  0.81167982  0.58374818  0.31279521     0.14700
C2229       C  0.76706926  0.58484217  0.30014721     0.36400
C2230       C  0.80919696  0.57838625  0.45240311     0.36300
N2231       N  0.75928273  0.58633594  0.26867973    -0.44000
N2232       N  0.81728347  0.57707566  0.48371896    -0.44000
C2233       C  0.81440075  0.73370379  0.37103644    -0.00400
C2234       C  0.80414140  0.71972417  0.33457506    -0.12200
C2235       C  0.77899555  0.69538416  0.33261742     0.01900
C2236       C  0.76355509  0.68399077  0.36800546    -0.00500
C2237       C  0.77251184  0.69928370  0.40360941    -0.12200
C2238       C  0.79730319  0.72409287  0.40527582     0.01800
H2239       H  0.81629590  0.72714623  0.30747833     0.14700
H2240       H  0.76042987  0.69147132  0.43069522     0.14700
C2241       C  0.80445277  0.73896651  0.44262880     0.36400
C2242       C  0.77056160  0.68206633  0.29410459     0.36300
N2243       N  0.80995622  0.75096060  0.47249384    -0.44000
N2244       N  0.76386015  0.67163036  0.26308868    -0.44000
C2245       C  0.91666303  0.68294098  0.37318679    -0.00400
C2246       C  0.91284683  0.69291524  0.33648804    -0.12200
C2247       C  0.91242936  0.71741893  0.33423465     0.01900
C2248       C  0.91630263  0.73303768  0.36932898    -0.00500
C2249       C  0.92278240  0.72447708  0.40523221    -0.12200
C2250       C  0.92308657  0.69983740  0.40749345     0.01800
H2251       H  0.90838000  0.68068889  0.30952785     0.14700
H2252       H  0.92661810  0.73658187  0.43219686     0.14700
C2253       C  0.92930748  0.69228456  0.44577451     0.36400
C2254       C  0.90565793  0.72451433  0.29596859     0.36300
N2255       N  0.93429982  0.68633769  0.47653867    -0.44000
N2256       N  0.90011522  0.73002589  0.26528297    -0.44000
C2257       C  0.51937044  0.64603054  0.02844881    -0.00400
C2258       C  0.99291792  0.63565209  0.04364910    -0.12200
C2259       C  0.97026353  0.62446852  0.01806509     0.01900
C2260       C  0.97383981  0.62304029  0.47631276     0.03700
C2261       C  0.50030247  0.63314364  0.46119017    -0.12200
C2262       C  0.52299797  0.64480936  0.48672418     0.01800
H2263       H  0.98994295  0.63633164  0.07573054     0.14700
H2264       H  0.50327987  0.63202039  0.42922117     0.14700
C2265       C  0.54968452  0.65431209  0.46956673     0.36400
C2266       C  0.94350562  0.61352216  0.03573599     0.36300
N2267       N  0.57109568  0.66193421  0.45593462    -0.44000
N2268       N  0.92208286  0.60474671  0.04994348    -0.44000
C2269       C  0.51885766  0.64727022  0.22534042    -0.00400
C2270       C  0.50819787  0.62015838  0.23848362    -0.12200
C2271       C  0.98612899  0.60808276  0.26493784     0.01900
C2272       C  0.97406588  0.62315436  0.27879859    -0.00500
C2273       C  0.98439715  0.65014386  0.26540099    -0.12200
C2274       C  0.50674022  0.66236037  0.23912004     0.01800
H2275       H  0.51725890  0.60829291  0.22823322     0.14700
H2276       H  0.97507687  0.66176060  0.27567153     0.14700
C2277       C  0.51618627  0.69001055  0.22581664     0.36400
C2278       C  0.97554033  0.57978103  0.27598321     0.36300
N2279       N  0.52383316  0.71216472  0.21504269    -0.44000
N2280       N  0.96696098  0.55711323  0.28484313    -0.44000
C2281       C  0.64350248  0.62358360  0.27825866    -0.00400
C2282       C  0.62793134  0.63453346  0.29354187    -0.12200
C2283       C  0.61666773  0.64592759  0.26797650     0.01900
C2284       C  0.62042795  0.64594819  0.22606094    -0.00500
C2285       C  0.63584141  0.63493713  0.21072927    -0.12200
C2286       C  0.64765793  0.62414211  0.23626183     0.01800
H2287       H  0.62464430  0.63432777  0.32561175     0.14700
H2288       H  0.63886719  0.63498762  0.17859609     0.14700
C2289       C  0.66335672  0.61324629  0.21815135     0.36400
C2290       C  0.60056194  0.65655421  0.28550900     0.36300
N2291       N  0.67607947  0.60470155  0.20360044    -0.44000
N2292       N  0.58771972  0.66510589  0.29963272    -0.44000
C2293       C  0.64710333  0.62672423  0.47479251    -0.00400
C2294       C  0.61999883  0.61011510  0.48761089    -0.12200
C2295       C  0.60758371  0.61999470  0.51354237     0.01900
C2296       C  0.62253363  0.64709599  0.02810058    -0.00500
C2297       C  0.64951402  0.66391728  0.01485131    -0.12200
C2298       C  0.66183286  0.65408595  0.98833831     0.01800
H2299       H  0.60824692  0.58915600  0.47715845     0.14700
H2300       H  0.66105136  0.68493645  0.02512662     0.14700
C2301       C  0.68900000  0.67293508  0.97411025     0.36400
C2302       C  0.57903730  0.60219163  0.52275650     0.36300
N2303       N  0.71069095  0.68821917  0.96256164    -0.44000
N2304       N  0.55612618  0.58791650  0.52976655    -0.44000
C2305       C  0.62479136  0.97758292  0.02647252    -0.00400
C2306       C  0.63560369  0.00408976  0.54204627    -0.12200
C2307       C  0.64718325  0.02702766  0.51682710     0.01900
C2308       C  0.64751451  0.52362576  0.47490557    -0.00500
C2309       C  0.63684506  0.49722195  0.95928371    -0.12200
C2310       C  0.62588172  0.47431958  0.98451083     0.01800
H2311       H  0.63503132  0.00694572  0.57414546     0.14700
H2312       H  0.63710435  0.49446128  0.92710640     0.14700
C2313       C  0.61518535  0.44776101  0.96615182     0.36400
C2314       C  0.65754365  0.05369359  0.53466020     0.36300
N2315       N  0.60678570  0.42652206  0.95139288    -0.44000
N2316       N  0.66590619  0.07506170  0.54896293    -0.44000
C2317       C  0.62539988  0.97714570  0.22336106    -0.00400
C2318       C  0.60801550  0.98573063  0.23934108    -0.12200
C2319       C  0.61755728  0.50748940  0.26639901     0.01900
C2320       C  0.64533960  0.52144415  0.27817599    -0.00500
C2321       C  0.66275633  0.51284184  0.26210714    -0.12200
C2322       C  0.65307940  0.99092785  0.23508649     0.01800
H2323       H  0.58667202  0.97525536  0.23076167     0.14700
H2324       H  0.68411548  0.52335155  0.27051858     0.14700
C2325       C  0.67233253  0.98397505  0.21852212     0.36400
C2326       C  0.59835219  0.51541855  0.28022734     0.36300
N2327       N  0.68797205  0.97869299  0.20519674    -0.44000
N2328       N  0.58285162  0.52164841  0.29115644    -0.44000
C2329       C  0.97832615  0.85232091  0.27861137    -0.00400
C2330       C  0.97333462  0.84890984  0.23711427    -0.12200
C2331       C  0.99475640  0.86001170  0.20934195     0.01900
C2332       C  0.52200908  0.87454803  0.22290932    -0.00500
C2333       C  0.52708660  0.87731720  0.26440835    -0.12200
C2334       C  0.00561480  0.86664021  0.29221980     0.01800
H2335       H  0.95251029  0.83799205  0.22618726     0.14700
H2336       H  0.54794580  0.88841375  0.27518773     0.14700
C2337       C  0.51224372  0.87033103  0.33441619     0.36400
C2338       C  0.98812628  0.85569776  0.16716956     0.36300
N2339       N  0.51759770  0.87334981  0.36820791    -0.44000
N2340       N  0.98278672  0.85226352  0.13339524    -0.44000
C2341       C  0.51976110  0.87192699  0.02788039    -0.00400
C2342       C  0.50420810  0.88482461  0.02262274    -0.12200
C2343       C  0.98129979  0.87370330  0.49762043     0.01900
C2344       C  0.97342366  0.84914493  0.47675020    -0.00500
C2345       C  0.98818967  0.83564026  0.48285854    -0.12200
C2346       C  0.51115966  0.84672447  0.00800155     0.01800
H2347       H  0.51000449  0.90389541  0.03793110     0.14700
H2348       H  0.98205682  0.81657352  0.46730011     0.14700
C2349       C  0.52515904  0.83150254  0.01298078     0.36400
C2350       C  0.96554539  0.88734267  0.49522758     0.36300
N2351       N  0.53637644  0.81928663  0.01696076    -0.44000
N2352       N  0.95281150  0.89814598  0.49360768    -0.44000
C2353       C  0.58027539  0.81575631  0.12780341    -0.00400
C2354       C  0.57705473  0.80221451  0.09107588    -0.12200
C2355       C  0.57676032  0.77730259  0.08902016     0.01900
C2356       C  0.57975964  0.76518856  0.12444035    -0.00500
C2357       C  0.58049796  0.77753099  0.16143315    -0.12200
C2358       C  0.58087029  0.80244246  0.16349008     0.01800
H2359       H  0.57590429  0.81166398  0.06341621     0.14700
H2360       H  0.58211234  0.76839163  0.18913372     0.14700
C2361       C  0.58361689  0.81437285  0.20270585     0.36400
C2362       C  0.57448939  0.76552989  0.04982392     0.36300
N2363       N  0.58587393  0.82386095  0.23418578    -0.44000
N2364       N  0.57264930  0.75617653  0.01834387    -0.44000
C2365       C  0.84912172  0.97471397  0.22415332    -0.00400
C2366       C  0.83273795  0.98539170  0.23731262    -0.12200
C2367       C  0.84288868  0.50752942  0.26410491     0.01900
C2368       C  0.86985910  0.51921665  0.27870742    -0.00500
C2369       C  0.88595738  0.50816773  0.26628188    -0.12200
C2370       C  0.87601865  0.98632235  0.23932895     0.01800
H2371       H  0.81197540  0.97655755  0.22642863     0.14700
H2372       H  0.90667779  0.51691280  0.27734138     0.14700
C2373       C  0.89380385  0.97584732  0.22893543     0.36400
C2374       C  0.82491967  0.51718095  0.27722572     0.36300
N2375       N  0.90816873  0.96758272  0.22068799    -0.44000
N2376       N  0.81048289  0.52484804  0.28785228    -0.44000
C2377       C  0.86767643  0.51958855  0.47324054    -0.00400
C2378       C  0.86759411  0.52378201  0.01471242    -0.12200
C2379       C  0.85782805  0.50182026  0.04167980     0.01900
C2380       C  0.84729447  0.97488489  0.02714614    -0.00500
C2381       C  0.84627775  0.97060642  0.48553355    -0.12200
C2382       C  0.85655100  0.99262757  0.45863342     0.01800
H2383       H  0.87610429  0.54441335  0.02621879     0.14700
H2384       H  0.83811188  0.95002971  0.47398975     0.14700
C2385       C  0.85514568  0.98693671  0.41620745     0.36400
C2386       C  0.85867309  0.50755240  0.08401896     0.36300
N2387       N  0.85398656  0.98232381  0.38223794    -0.44000
N2388       N  0.85942052  0.51219173  0.11793108    -0.44000
C2389       C  0.87127002  0.85071815  0.46876187    -0.00400
C2390       C  0.84968662  0.83282184  0.49404511    -0.12200
C2391       C  0.83783512  0.84275938  0.02132802     0.01900
C2392       C  0.84814838  0.87116225  0.02463038    -0.00500
C2393       C  0.86947112  0.88899334  0.99934622    -0.12200
C2394       C  0.88070850  0.87913694  0.47117299     0.01800
H2395       H  0.84200756  0.81102542  0.49248603     0.14700
H2396       H  0.87713346  0.91079829  0.00121843     0.14700
C2397       C  0.90229662  0.89897806  0.44586500     0.36400
C2398       C  0.81571281  0.82350729  0.04644914     0.36300
N2399       N  0.91948531  0.91486332  0.42543866    -0.44000
N2400       N  0.79793290  0.80814401  0.06656533    -0.44000
C2401       C  0.85190240  0.87329137  0.21944491    -0.00400
C2402       C  0.87844804  0.88996350  0.23379352    -0.12200
C2403       C  0.89030449  0.87978937  0.26040897     0.01900
C2404       C  0.87543365  0.85212398  0.27311452    -0.00500
C2405       C  0.84896545  0.83529665  0.25786437    -0.12200
C2406       C  0.83713353  0.84566412  0.23134721     0.01800
H2407       H  0.88994960  0.91117037  0.22428306     0.14700
H2408       H  0.83739493  0.81397498  0.26676010     0.14700
C2409       C  0.81036022  0.82733639  0.21534126     0.36400
C2410       C  0.91808569  0.89810884  0.27283508     0.36300
N2411       N  0.78900762  0.81258097  0.20223998    -0.44000
N2412       N  0.94035378  0.91285829  0.28263883    -0.44000
C2413       C  0.73206296  0.91464198  0.11938851    -0.00400
C2414       C  0.72047578  0.91604260  0.15588517    -0.12200
C2415       C  0.69610598  0.91663887  0.15721605     0.01900
C2416       C  0.68216530  0.91544941  0.12123119    -0.00500
C2417       C  0.69489859  0.91633887  0.08457107    -0.12200
C2418       C  0.71960590  0.91617167  0.08327023     0.01800
H2419       H  0.73007704  0.91586656  0.18395358     0.14700
H2420       H  0.68502746  0.91609236  0.05657137     0.14700
C2421       C  0.73100416  0.91674341  0.04428686     0.36400
C2422       C  0.68590868  0.91791065  0.19636479     0.36300
N2423       N  0.74023116  0.91738308  0.01306537    -0.44000
N2424       N  0.67786149  0.91891376  0.22783793    -0.44000
C2425       C  0.68054484  0.76374246  0.12999764    -0.00400
C2426       C  0.69143075  0.77754878  0.16631086    -0.12200
C2427       C  0.71621722  0.80233995  0.16743362     0.01900
C2428       C  0.73102899  0.81385465  0.13153450    -0.00500
C2429       C  0.72128238  0.79885972  0.09582739    -0.12200
C2430       C  0.69645797  0.77410217  0.09471683     0.01800
H2431       H  0.67977422  0.76989115  0.19374563     0.14700
H2432       H  0.73265966  0.80693338  0.06824964     0.14700
C2433       C  0.68781841  0.76019819  0.05664870     0.36400
C2434       C  0.72456868  0.81625454  0.20553403     0.36300
N2435       N  0.68100230  0.74916993  0.02605720    -0.44000
N2436       N  0.73108993  0.82732084  0.23613056    -0.44000
Fe2437     Fe  0.85057666  0.92454196  0.62328874     1.65800
Fe2438     Fe  0.79111562  0.89442739  0.67553519     1.73200
Fe2439     Fe  0.79043303  0.89221877  0.57369852     1.54400
O2440       O  0.81748847  0.92825400  0.54385498    -0.81900
O2441       O  0.76774313  0.85372569  0.66111374    -0.80200
O2442       O  0.85066382  0.95388375  0.58677945    -0.84400
O2443       O  0.85355757  0.90363018  0.57387075    -0.79200
O2444       O  0.76751001  0.90992999  0.58828013    -0.81000
O2445       O  0.81848981  0.88502274  0.70278409    -0.83800
C2446       C  0.83695368  0.88304876  0.55318473     0.97000
C2447       C  0.83782269  0.95101980  0.55434917     1.04400
O2448       O  0.81065388  0.90365295  0.62432458    -1.12700
O2449       O  0.81230664  0.93423300  0.69619452    -0.75200
O2450       O  0.85385716  0.94862011  0.67215025    -0.78700
O2451       O  0.81136553  0.87319460  0.55486434    -0.79400
C2452       C  0.83772225  0.95122445  0.69572760     0.95900
O2453       O  0.85338426  0.89703147  0.66052096    -0.77300
O2454       O  0.76113937  0.90218948  0.65390738    -0.82500
C2455       C  0.75464062  0.84232627  0.62945969     0.98500
C2456       C  0.75521456  0.90901319  0.62053721     1.04400
O2457       O  0.76021118  0.85484665  0.59602565    -0.78200
C2458       C  0.84036809  0.88553024  0.69239717     1.02700
Fe2459     Fe  0.57258088  0.92624654  0.62440441     1.65800
Fe2460     Fe  0.60321079  0.89681844  0.67519894     1.73200
Fe2461     Fe  0.60194831  0.89554184  0.57302355     1.54400
O2462       O  0.56237603  0.87815505  0.55190604    -0.81900
O2463       O  0.64052503  0.90429930  0.65393153    -0.80200
O2464       O  0.54727024  0.90436282  0.57727442    -0.84400
O2465       O  0.60003573  0.95574107  0.58562043    -0.79200
O2466       O  0.59280929  0.85738084  0.59388506    -0.81000
O2467       O  0.62190941  0.93663200  0.69580361    -0.83800
C2468       C  0.61173115  0.95385098  0.55426844     0.97000
C2469       C  0.54455722  0.88543306  0.55395409     1.04400
O2470       O  0.59266621  0.90626039  0.62414139    -1.12700
O2471       O  0.56724674  0.88766228  0.70421359    -0.75200
O2472       O  0.54325648  0.89852454  0.66292506    -0.78700
O2473       O  0.61240417  0.93234147  0.54553246    -0.79400
C2474       C  0.54544561  0.88749230  0.69481286     0.95900
O2475       O  0.59449989  0.95095375  0.67210144    -0.77300
O2476       O  0.58576077  0.85612633  0.65963373    -0.82500
C2477       C  0.65362675  0.91058472  0.62113885     0.98500
C2478       C  0.58616273  0.84464348  0.62715161     1.04400
O2479       O  0.64267242  0.91140400  0.58827348    -0.78200
C2480       C  0.61358171  0.95369628  0.69512256     1.02700
Fe2481     Fe  0.56986857  0.64544246  0.62706656     1.65800
Fe2482     Fe  0.60070274  0.70572352  0.57569872     1.73200
Fe2483     Fe  0.59955104  0.70569608  0.67801140     1.54400
O2484       O  0.56004220  0.68415148  0.69912378    -0.81900
O2485       O  0.63876806  0.73477362  0.59638695    -0.80200
O2486       O  0.54502040  0.64250842  0.67432905    -0.84400
O2487       O  0.59713568  0.64350285  0.66598272    -0.79200
O2488       O  0.59146116  0.73525698  0.65722460    -0.81000
O2489       O  0.61805984  0.68374798  0.55410339    -0.83800
C2490       C  0.60813207  0.65681122  0.69779027     0.97000
C2491       C  0.54259582  0.65883009  0.69774931     1.04400
O2492       O  0.59004176  0.68562971  0.62690352    -1.12700
O2493       O  0.56411172  0.67930619  0.54776177    -0.75200
O2494       O  0.54058016  0.64349331  0.58818084    -0.78700
O2495       O  0.60887193  0.67898786  0.70652467    -0.79400
C2496       C  0.54267408  0.65700777  0.55660175     0.95900
O2497       O  0.59173747  0.64229417  0.57988524    -0.77300
O2498       O  0.58468753  0.73019327  0.59151330    -0.82500
C2499       C  0.65163030  0.74093508  0.62941390     0.98500
C2500       C  0.58515267  0.74186662  0.62422728     1.04400
O2501       O  0.64019399  0.72948711  0.66227160    -0.78200
C2502       C  0.61013009  0.65842035  0.55574844     1.02700
Fe2503     Fe  0.92557717  0.85189110  0.87456150     1.65800
Fe2504     Fe  0.89569939  0.79271669  0.82174519     1.73200
Fe2505     Fe  0.89434168  0.79095121  0.92414261     1.54400
O2506       O  0.93326318  0.81243432  0.94810668    -0.81900
O2507       O  0.85718836  0.76315265  0.84021493    -0.80200
O2508       O  0.94864384  0.85438332  0.92404245    -0.84400
O2509       O  0.89682892  0.85311180  0.91074508    -0.79200
O2510       O  0.90369827  0.76191605  0.90359534    -0.81000
O2511       O  0.87854365  0.81479540  0.79996106    -0.83800
C2512       C  0.88438827  0.83959137  0.94181591     0.97000
C2513       C  0.95041117  0.83787429  0.94794735     1.04400
O2514       O  0.90521958  0.81178219  0.87355145    -1.12700
O2515       O  0.93286989  0.81974220  0.79571192    -0.75200
O2516       O  0.95613767  0.85406223  0.83827008    -0.78700
O2517       O  0.88332164  0.81722938  0.95127590    -0.79400
C2518       C  0.95455500  0.84129362  0.80616907     0.95900
O2519       O  0.90564632  0.85599212  0.82541579    -0.77300
O2520       O  0.91169099  0.76845079  0.83801747    -0.82500
C2521       C  0.84351847  0.75627794  0.87258623     0.98500
C2522       C  0.91067181  0.75613687  0.87038662     1.04400
O2523       O  0.85425158  0.76699127  0.90600642    -0.78200
C2524       C  0.88717811  0.84025686  0.80117354     1.02700
Fe2525     Fe  0.92261792  0.57096666  0.87692575     1.65800
Fe2526     Fe  0.89361691  0.60262362  0.92777244     1.73200
Fe2527     Fe  0.89257023  0.60116144  0.82487341     1.54400
O2528       O  0.93059270  0.61478068  0.79954061    -0.81900
O2529       O  0.85472317  0.59158273  0.90980096    -0.80200
O2530       O  0.95034760  0.59575979  0.83451451    -0.84400
O2531       O  0.89835182  0.54381811  0.83316446    -0.79200
O2532       O  0.90576141  0.64087676  0.84221378    -0.81000
O2533       O  0.87825266  0.56412380  0.95302127    -0.83800
C2534       C  0.88233763  0.54316178  0.80603653     0.97000
C2535       C  0.95033395  0.61069961  0.80612276     1.04400
O2536       O  0.90294260  0.59159410  0.87651873    -1.12700
O2537       O  0.93108296  0.61546098  0.95355841    -0.75200
O2538       O  0.95013886  0.59516206  0.92060212    -0.78700
O2539       O  0.87761770  0.56259960  0.80043452    -0.79400
C2540       C  0.95035237  0.61057684  0.94836396     0.95900
O2541       O  0.89687654  0.54354890  0.91917182    -0.77300
O2542       O  0.90774189  0.64243223  0.90878683    -0.82500
C2543       C  0.84204067  0.58743713  0.87695955     0.98500
C2544       C  0.91030499  0.65387623  0.87497595     1.04400
O2545       O  0.85336018  0.58909452  0.84340622    -0.78200
C2546       C  0.88146008  0.54375779  0.94657302     1.02700
Fe2547     Fe  0.64475324  0.57327832  0.87700855     1.65800
Fe2548     Fe  0.70571423  0.60523810  0.92590096     1.73200
Fe2549     Fe  0.70374970  0.60274570  0.82382056     1.54400
O2550       O  0.68212490  0.56285916  0.80378974    -0.81900
O2551       O  0.73476855  0.64301755  0.90347246    -0.80200
O2552       O  0.64095112  0.54813922  0.82953977    -0.84400
O2553       O  0.64184213  0.60040624  0.83864587    -0.79200
O2554       O  0.73360783  0.59511023  0.84370503    -0.81000
O2555       O  0.68422001  0.62323471  0.94738335    -0.83800
C2556       C  0.65463672  0.61128757  0.80635397     0.97000
C2557       C  0.65682741  0.54547978  0.80555518     1.04400
O2558       O  0.68477538  0.59379561  0.87561006    -1.12700
O2559       O  0.67959878  0.56901056  0.95545418    -0.75200
O2560       O  0.64412969  0.54434236  0.91527216    -0.78700
O2561       O  0.67653423  0.61177490  0.79685525    -0.79400
C2562       C  0.65777650  0.54703240  0.94683378     0.95900
O2563       O  0.64234958  0.59518231  0.92471420    -0.77300
O2564       O  0.72956652  0.58854651  0.90956188    -0.82500
C2565       C  0.74028914  0.65533383  0.86987700     0.98500
C2566       C  0.74065054  0.58883415  0.87625666     1.04400
O2567       O  0.72760107  0.64357848  0.83802894    -0.78200
C2568       C  0.65878094  0.61464005  0.94713550     1.02700
C2569       C  0.76377732  0.58326068  0.87544370    -0.00400
C2570       C  0.77462155  0.58057598  0.91195776    -0.12200
C2571       C  0.79913178  0.58017440  0.91336216     0.01900
C2572       C  0.81350413  0.58234147  0.87743354    -0.00500
C2573       C  0.80140791  0.58260760  0.84077834    -0.12200
C2574       C  0.77703775  0.58318077  0.83934572     0.01800
H2575       H  0.76459691  0.58002908  0.93995434     0.14700
H2576       H  0.81168122  0.58372563  0.81278366     0.14700
C2577       C  0.76707801  0.58483188  0.80012693     0.36400
C2578       C  0.80924228  0.57847335  0.95240255     0.36300
N2579       N  0.75929332  0.58632331  0.76865687    -0.44000
N2580       N  0.81734487  0.57720369  0.98372546    -0.44000
C2581       C  0.81441076  0.73371142  0.87100881    -0.00400
C2582       C  0.80414771  0.71974436  0.83453922    -0.12200
C2583       C  0.77899992  0.69540683  0.83257398     0.01900
C2584       C  0.76356550  0.68400200  0.86796362    -0.00500
C2585       C  0.77252336  0.69928681  0.90357427    -0.12200
C2586       C  0.79731428  0.72409434  0.90524789     0.01800
H2587       H  0.81629922  0.72717587  0.80744091     0.14700
H2588       H  0.76044276  0.69146875  0.93066067     0.14700
C2589       C  0.80446515  0.73895857  0.94260894     0.36400
C2590       C  0.77055448  0.68210835  0.79404944     0.36300
N2591       N  0.80997023  0.75094606  0.97247989    -0.44000
N2592       N  0.76384455  0.67169100  0.76302240    -0.44000
C2593       C  0.91666622  0.68294574  0.87316632    -0.00400
C2594       C  0.91281628  0.69290308  0.83647538    -0.12200
C2595       C  0.91239652  0.71740520  0.83422338     0.01900
C2596       C  0.91630594  0.73304157  0.86930876    -0.00500
C2597       C  0.92281555  0.72449685  0.90520029    -0.12200
C2598       C  0.92311929  0.69985680  0.90746160     0.01800
H2599       H  0.90832229  0.68066350  0.80952430     0.14700
H2600       H  0.92667540  0.73661504  0.93215645     0.14700
C2601       C  0.92937017  0.69231885  0.94573180     0.36400
C2602       C  0.90557779  0.72447767  0.79597605     0.36300
N2603       N  0.93438618  0.68638484  0.97648834    -0.44000
N2604       N  0.89999572  0.72997028  0.76530657    -0.44000
C2605       C  0.51935998  0.64602350  0.52845980    -0.00400
C2606       C  0.99290550  0.63560454  0.54366760    -0.12200
C2607       C  0.97024994  0.62441336  0.51808326     0.01900
C2608       C  0.97384963  0.62305562  0.97630177     0.03700
C2609       C  0.50030993  0.63312148  0.96118882    -0.12200
C2610       C  0.52300532  0.64478250  0.98672072     0.01800
H2611       H  0.98992623  0.63625336  0.57575368     0.14700
H2612       H  0.50328390  0.63197030  0.92922546     0.14700
C2613       C  0.54968709  0.65424449  0.96957216     0.36400
C2614       C  0.94348717  0.61341583  0.53575787     0.36300
N2615       N  0.57109414  0.66183370  0.95594675    -0.44000
N2616       N  0.92206042  0.60459795  0.54996864    -0.44000
C2617       C  0.51886087  0.64727616  0.72535131    -0.00400
C2618       C  0.50823052  0.62017855  0.73853973    -0.12200
C2619       C  0.98616431  0.60810417  0.76498530     0.01900
C2620       C  0.97407800  0.62316363  0.77880663    -0.00500
C2621       C  0.98438594  0.65014163  0.76537047    -0.12200
C2622       C  0.50671699  0.66235178  0.73908169     0.01800
H2623       H  0.51731311  0.60832557  0.72832278     0.14700
H2624       H  0.97504732  0.66174847  0.77560879     0.14700
C2625       C  0.51612844  0.68998243  0.72571429     0.36400
C2626       C  0.97559885  0.57981147  0.77606384     0.36300
N2627       N  0.52374667  0.71212015  0.71488642    -0.44000
N2628       N  0.96703794  0.55715064  0.78494899    -0.44000
C2629       C  0.64351991  0.62360687  0.77825701    -0.00400
C2630       C  0.62790447  0.63450755  0.79354128    -0.12200
C2631       C  0.61663244  0.64589648  0.76798163     0.01900
C2632       C  0.62043499  0.64596737  0.72607178    -0.00500
C2633       C  0.63589630  0.63501159  0.71073821    -0.12200
C2634       C  0.64771649  0.62421740  0.73626426     0.01800
H2635       H  0.62458390  0.63426224  0.82560664     0.14700
H2636       H  0.63895333  0.63510183  0.67860802     0.14700
C2637       C  0.66345859  0.61337339  0.71814579     0.36400
C2638       C  0.60046761  0.65645741  0.78550777     0.36300
N2639       N  0.67621422  0.60486942  0.70358551    -0.44000
N2640       N  0.58757508  0.66495368  0.79962457    -0.44000
C2641       C  0.64712676  0.62673688  0.97477739    -0.00400
C2642       C  0.62004593  0.61010040  0.98767255    -0.12200
C2643       C  0.60762532  0.61997070  0.01360892     0.01900
C2644       C  0.62252033  0.64709737  0.52810965    -0.00500
C2645       C  0.64952196  0.66389345  0.51493535    -0.12200
C2646       C  0.66183633  0.65405582  0.48842552     0.01800
H2647       H  0.60831724  0.58912546  0.97727727     0.14700
H2648       H  0.66107972  0.68489758  0.52526927     0.14700
C2649       C  0.68903146  0.67288464  0.47427878     0.36400
C2650       C  0.57910062  0.60212609  0.02291009     0.36300
N2651       N  0.71074560  0.68815294  0.46279540    -0.44000
N2652       N  0.55620679  0.58781344  0.02998950    -0.44000
C2653       C  0.62477633  0.97757221  0.52646933    -0.00400
C2654       C  0.63561410  0.00410052  0.04204965    -0.12200
C2655       C  0.64720161  0.02704131  0.01683246     0.01900
C2656       C  0.64754045  0.52364247  0.97490947    -0.00500
C2657       C  0.63680856  0.49720463  0.45927801    -0.12200
C2658       C  0.62584816  0.47430403  0.48450637     0.01800
H2659       H  0.63503246  0.00695433  0.07414763     0.14700
H2660       H  0.63705698  0.49444229  0.42709978     0.14700
C2661       C  0.61513216  0.44774255  0.46614818     0.36400
C2662       C  0.65756221  0.05370639  0.03466826     0.36300
N2663       N  0.60671550  0.42650111  0.45139000    -0.44000
N2664       N  0.66592543  0.07507317  0.04897594    -0.44000
C2665       C  0.62539360  0.97714579  0.72335625    -0.00400
C2666       C  0.60801021  0.98573278  0.73933531    -0.12200
C2667       C  0.61755330  0.50749342  0.76638911     0.01900
C2668       C  0.64533569  0.52144656  0.77816561    -0.00500
C2669       C  0.66275088  0.51284269  0.76209758    -0.12200
C2670       C  0.65307383  0.99092932  0.73507878     0.01800
H2671       H  0.58666683  0.97525843  0.73075643     0.14700
H2672       H  0.68411044  0.52335242  0.77050719     0.14700
C2673       C  0.67232866  0.98398078  0.71850972     0.36400
C2674       C  0.59835205  0.51542976  0.78021001     0.36300
N2675       N  0.68797127  0.97870456  0.70518032    -0.44000
N2676       N  0.58285475  0.52166608  0.79113149    -0.44000
C2677       C  0.97832712  0.85232390  0.77858826    -0.00400
C2678       C  0.97333342  0.84892120  0.73709089    -0.12200
C2679       C  0.99475457  0.86001733  0.70931714     0.01900
C2680       C  0.52200742  0.87453891  0.72287938    -0.00500
C2681       C  0.52708619  0.87730060  0.76437779    -0.12200
C2682       C  0.00561607  0.86662781  0.79219505     0.01800
H2683       H  0.95250844  0.83801386  0.72616546     0.14700
H2684       H  0.54794586  0.88838816  0.77515687     0.14700
C2685       C  0.51224736  0.87031358  0.83438564     0.36400
C2686       C  0.98812126  0.85571181  0.66714469     0.36300
N2687       N  0.51760423  0.87332772  0.86817644    -0.44000
N2688       N  0.98277759  0.85228366  0.63337113    -0.44000
C2689       C  0.51977388  0.87193210  0.52785453    -0.00400
C2690       C  0.50419085  0.88480409  0.52266087    -0.12200
C2691       C  0.98130494  0.87370167  0.99760430     0.01900
C2692       C  0.97342057  0.84913335  0.97675651    -0.00500
C2693       C  0.98817121  0.83561623  0.98290276    -0.12200
C2694       C  0.51120277  0.84675788  0.50790632     0.01800
H2695       H  0.50996479  0.90385407  0.53801608     0.14700
H2696       H  0.98202919  0.81653917  0.96736942     0.14700
C2697       C  0.52524469  0.83156986  0.51278629     0.36400
C2698       C  0.96555960  0.88734941  0.99518916     0.36300
N2699       N  0.53649727  0.81938195  0.51668347    -0.44000
N2700       N  0.95283285  0.89815967  0.99355423    -0.44000
C2701       C  0.58027617  0.81576001  0.62780619    -0.00400
C2702       C  0.57706895  0.80222448  0.59107689    -0.12200
C2703       C  0.57676861  0.77731030  0.58902428     0.01900
C2704       C  0.57975258  0.76519021  0.62444849    -0.00500
C2705       C  0.58047381  0.77752463  0.66144155    -0.12200
C2706       C  0.58084600  0.80243598  0.66349618     0.01800
H2707       H  0.57593114  0.81167897  0.56341491     0.14700
H2708       H  0.58207120  0.76837728  0.68914455     0.14700
C2709       C  0.58355627  0.81435075  0.70271551     0.36400
C2710       C  0.57450393  0.76553968  0.54982813     0.36300
N2711       N  0.58578102  0.82382509  0.73419857    -0.44000
N2712       N  0.57266684  0.75618710  0.51834830    -0.44000
C2713       C  0.84915241  0.97472297  0.72413679    -0.00400
C2714       C  0.83278001  0.98542289  0.73725521    -0.12200
C2715       C  0.84293033  0.50756109  0.76404533     0.01900
C2716       C  0.86988674  0.51922271  0.77869748    -0.00500
C2717       C  0.88597437  0.50815169  0.76631244    -0.12200
C2718       C  0.87603789  0.98630964  0.73934987     0.01800
H2719       H  0.81202675  0.97660678  0.72633766     0.14700
H2720       H  0.90668499  0.51687836  0.77740558     0.14700
C2721       C  0.89381019  0.97581309  0.72898916     0.36400
C2722       C  0.82497269  0.51723994  0.77711065     0.36300
N2723       N  0.90816479  0.96753138  0.72076738    -0.44000
N2724       N  0.81054548  0.52493013  0.78769112    -0.44000
C2725       C  0.86769706  0.51960804  0.97325409    -0.00400
C2726       C  0.86756230  0.52375971  0.51469805    -0.12200
C2727       C  0.85779593  0.50179748  0.54166394     0.01900
C2728       C  0.84728324  0.97486527  0.52713042    -0.00500
C2729       C  0.84628534  0.97062504  0.98554950    -0.12200
C2730       C  0.85656855  0.99264593  0.95864901     0.01800
H2731       H  0.87606077  0.54438945  0.52620577     0.14700
H2732       H  0.83811281  0.95004748  0.97400619     0.14700
C2733       C  0.85517947  0.98695459  0.91622486     0.36400
C2734       C  0.85860947  0.50752379  0.58400072     0.36300
N2735       N  0.85403822  0.98234236  0.88225692    -0.44000
N2736       N  0.85932730  0.51215696  0.61791102    -0.44000
C2737       C  0.87128947  0.85073277  0.96876791    -0.00400
C2738       C  0.84969875  0.83283786  0.99404210    -0.12200
C2739       C  0.83782483  0.84274149  0.52133594     0.01900
C2740       C  0.84813272  0.87114363  0.52463084    -0.00500
C2741       C  0.86944479  0.88897534  0.49933292    -0.12200
C2742       C  0.88073630  0.87915314  0.97118928     0.01800
H2743       H  0.84201336  0.81104032  0.99247692     0.14700
H2744       H  0.87710106  0.91077938  0.50119896     0.14700
C2745       C  0.90233307  0.89899357  0.94589239     0.36400
C2746       C  0.81571228  0.82348889  0.54647074     0.36300
N2747       N  0.91952898  0.91487893  0.92547557    -0.44000
N2748       N  0.79794039  0.80812438  0.56659746    -0.44000
C2749       C  0.85191431  0.87328507  0.71943140    -0.00400
C2750       C  0.87847460  0.88994364  0.73373653    -0.12200
C2751       C  0.89032665  0.87976739  0.76035600     0.01900
C2752       C  0.87543741  0.85211381  0.77310763    -0.00500
C2753       C  0.84895615  0.83529706  0.75789620    -0.12200
C2754       C  0.83712811  0.84566671  0.73137556     0.01800
H2755       H  0.88999059  0.91114198  0.72419132     0.14700
H2756       H  0.83737289  0.81398288  0.76682574     0.14700
C2757       C  0.81034045  0.82734819  0.71540695     0.36400
C2758       C  0.91812136  0.89806998  0.77274097     0.36300
N2759       N  0.78897649  0.81259955  0.70233457    -0.44000
N2760       N  0.94039994  0.91280357  0.78251527    -0.44000
C2761       C  0.73207154  0.91463919  0.61938010    -0.00400
C2762       C  0.72049297  0.91606024  0.65587295    -0.12200
C2763       C  0.69612363  0.91665813  0.65720006     0.01900
C2764       C  0.68217367  0.91544879  0.62121602    -0.00500
C2765       C  0.69489586  0.91631253  0.58455606    -0.12200
C2766       C  0.71960274  0.91614370  0.58325805     0.01800
H2767       H  0.73010211  0.91590128  0.68394240     0.14700
H2768       H  0.68501619  0.91604713  0.55655570     0.14700
C2769       C  0.73098789  0.91668648  0.54427467     0.36400
C2770       C  0.68593744  0.91795493  0.69634527     0.36300
N2771       N  0.74020475  0.91730304  0.51305336    -0.44000
N2772       N  0.67790004  0.91897818  0.72781664    -0.44000
C2773       C  0.68054103  0.76375145  0.63002119    -0.00400
C2774       C  0.69143031  0.77755179  0.66633847    -0.12200
C2775       C  0.71622061  0.80233988  0.66746617     0.01900
C2776       C  0.73103015  0.81385881  0.63156723    -0.00500
C2777       C  0.72127987  0.79886945  0.59585634    -0.12200
C2778       C  0.69645395  0.77411451  0.59474128     0.01800
H2779       H  0.67977532  0.76989050  0.69377406     0.14700
H2780       H  0.73265631  0.80694527  0.56827850     0.14700
C2781       C  0.68781449  0.76021620  0.55666929     0.36400
C2782       C  0.72458159  0.81624469  0.70557282     0.36300
N2783       N  0.68100004  0.74919295  0.52607406    -0.44000
N2784       N  0.73111080  0.82730181  0.73617540    -0.44000
loop_ 
_geom_bond_atom_site_label_1 
_geom_bond_atom_site_label_2 
_geom_bond_distance 
_geom_bond_site_symmetry_2 
_ccdc_geom_bond_type 
Fe1          O17   2.056       .  S
Fe1           O7   2.086       .  S
Fe1          O14   2.073       .  S
Fe1           O6   2.054       .  S
Fe1          O12   1.958       .  S
Fe2           O5   2.056       .  S
Fe2           O9   2.083       .  S
Fe2          O13   2.068       .  S
Fe2          O18   2.084       .  S
Fe2          O12   1.958       .  S
Fe3          O21   2.078       .  S
Fe3           O8   2.058       .  S
Fe3          O15   2.060       .  S
Fe3           O4   2.086       .  S
Fe3          O12   1.960       .  S
O4           C11   1.273       .  A
O5           C19   1.266       .  A
O6           C11   1.268       .  A
O7           C10   1.273       .  A
O8           C20   1.269       .  A
O9           C22   1.274       .  A
C10          O15   1.267       .  A
C10         C304   1.481       .  S
C11         C292   1.483       .  S
O13          C16   1.269       .  A
O14          C16   1.270       .  A
C16         C277   1.491       .  S
O17          C22   1.270       .  A
O18          C20   1.276       .  A
C19          O21   1.272       .  A
C19         C340   1.492       .  S
C20         C325   1.497       .  S
C22         C313   1.474       .  S
Fe23         O39   2.072       .  S
Fe23         O29   2.065       .  S
Fe23         O36   2.061       .  S
Fe23         O28   2.070       .  S
Fe23         O34   1.966       .  S
Fe24         O27   2.063       .  S
Fe24         O31   2.068       .  S
Fe24         O35   2.073       .  S
Fe24         O40   2.065       .  S
Fe24         O34   1.964       .  S
Fe25         O43   2.077       .  S
Fe25         O30   2.069       .  S
Fe25         O37   2.068       .  S
Fe25         O26   2.069       .  S
Fe25         O34   1.969       .  S
O26          C33   1.269       .  A
O27          C41   1.268       .  A
O28          C33   1.270       .  A
O29          C32   1.271       .  A
O30          C42   1.271       .  A
O31          C44   1.269       .  A
C32          O37   1.270       .  A
C32         C217   1.485       .  S
C33         C253   1.496       .  S
O35          C38   1.270       .  A
O36          C38   1.269       .  A
C38         C244   1.483       .  S
O39          C44   1.271       .  A
O40          C42   1.270       .  A
C41          O43   1.272       .  A
C41         C328   1.499       .  S
C42         C265   1.494       .  S
C44         C229   1.486       .  S
Fe45         O61   2.066       .  S
Fe45         O51   2.062       .  S
Fe45         O58   2.065       .  S
Fe45         O50   2.064       .  S
Fe45         O56   1.966       .  S
Fe46         O49   2.068       .  S
Fe46         O53   2.064       .  S
Fe46         O57   2.072       .  S
Fe46         O62   2.069       .  S
Fe46         O56   1.969       .  S
Fe47         O65   2.069       .  S
Fe47         O52   2.061       .  S
Fe47         O59   2.064       .  S
Fe47         O48   2.063       .  S
Fe47         O56   1.969       .  S
O48          C55   1.269       .  A
O49          C63   1.270       .  A
O50          C55   1.269       .  A
O51          C54   1.270       .  A
O52          C64   1.269       .  A
O53          C66   1.269       .  A
C54          O59   1.268       .  A
C54         C196   1.476       .  S
C55         C181   1.483       .  S
O57          C60   1.270       .  A
O58          C60   1.270       .  A
C60         C169   1.480       .  S
O61          C66   1.269       .  A
O62          C64   1.270       .  A
C63          O65   1.271       .  A
C63         C337   1.493       .  S
C64         C268   1.496       .  S
C66         C208   1.486       .  S
Fe67         O83   2.068       .  S
Fe67         O73   2.056       .  S
Fe67         O80   2.066       .  S
Fe67         O72   2.066       .  S
Fe67         O78   1.962       .  S
Fe68         O71   2.067       .  S
Fe68         O75   2.061       .  S
Fe68         O79   2.072       .  S
Fe68         O84   2.060       .  S
Fe68         O78   1.965       .  S
Fe69         O87   2.068       .  S
Fe69         O74   2.079       .  S
Fe69         O81   2.086       .  S
Fe69         O70   2.072       .  S
Fe69         O78   1.969       .  S
O70          C77   1.269       .  A
O71          C85   1.270       .  A
O72          C77   1.268       .  A
O73          C76   1.269       .  A
O74          C86   1.273       .  A
O75          C88   1.268       .  A
C76          O81   1.274       .  A
C76         C301   1.492       .  S
C77         C256   1.482       .  S
O79          C82   1.271       .  A
O80          C82   1.270       .  A
C82         C241   1.485       .  S
O83          C88   1.268       .  A
O84          C86   1.269       .  A
C85          O87   1.270       .  A
C85         C145   1.497       .  S
C86         C160   1.492       .  S
C88         C316   1.488       .  S
Fe89        O105   2.059       .  S
Fe89         O95   2.066       .  S
Fe89        O102   2.072       .  S
Fe89         O94   2.054       .  S
Fe89        O100   1.977       .  S
Fe90         O93   2.056       .  S
Fe90         O97   2.073       .  S
Fe90        O101   2.057       .  S
Fe90        O106   2.072       .  S
Fe90        O100   1.981       .  S
Fe91        O109   2.065       .  S
Fe91         O96   2.063       .  S
Fe91        O103   2.071       .  S
Fe91         O92   2.070       .  S
Fe91        O100   1.980       .  S
O92          C99   1.270       .  A
O93         C107   1.266       .  A
O94          C99   1.268       .  A
O95          C98   1.269       .  A
O96         C108   1.270       .  A
O97         C110   1.271       .  A
C98         O103   1.268       .  A
C98         C280   1.486       .  S
C99         C184   1.478       .  S
O101        C104   1.266       .  A
O102        C104   1.269       .  A
C104        C172   1.483       .  S
O105        C110   1.269       .  A
O106        C108   1.270       .  A
C107        O109   1.270       .  A
C107        C136   1.494       .  S
C108        C157   1.497       .  S
C110        C289   1.480       .  S
Fe111       O127   2.064       .  S
Fe111       O117   2.065       .  S
Fe111       O124   2.059       .  S
Fe111       O116   2.068       .  S
Fe111       O122   1.963       .  S
Fe112       O115   2.073       .  S
Fe112       O119   2.069       .  S
Fe112       O123   2.075       .  S
Fe112       O128   2.073       .  S
Fe112       O122   1.968       .  S
Fe113       O131   2.063       .  S
Fe113       O118   2.054       .  S
Fe113       O125   2.058       .  S
Fe113       O114   2.066       .  S
Fe113       O122   1.961       .  S
O114        C121   1.269       .  A
O115        C129   1.271       .  A
O116        C121   1.268       .  A
O117        C120   1.270       .  A
O118        C130   1.267       .  A
O119        C132   1.270       .  A
C120        O125   1.268       .  A
C120        C193   1.482       .  S
C121        C232   1.491       .  S
O123        C126   1.271       .  A
O124        C126   1.269       .  A
C126        C220   1.479       .  S
O127        C132   1.270       .  A
O128        C130   1.272       .  A
C129        O131   1.269       .  A
C129        C148   1.492       .  S
C130        C133   1.494       .  S
C132        C205   1.487       .  S
C133        C134   1.406       .  A
C133        C138   1.421       .  A
C134        C135   1.401       .  A
C134        H139   1.085       .  S
C135        C136   1.419       .  A
C135        C142   1.445       .  S
C136        C137   1.405       .  A
C137        C138   1.398       .  A
C137        H140   1.085       .  S
C138        C141   1.446       .  S
C141        N143   1.158       .  T
C142        N144   1.157       .  T
C145        C146   1.408       .  A
C145        C150   1.417       .  A
C146        C147   1.400       .  A
C146        H151   1.084       .  S
C147        C148   1.416       .  A
C147        C154   1.445       .  S
C148        C149   1.407       .  A
C149        C150   1.403       .  A
C149        H152   1.084       .  S
C150        C153   1.444       .  S
C153        N155   1.157       .  T
C154        N156   1.157       .  T
C157        C158   1.408       .  A
C157        C162   1.418       .  A
C158        C159   1.399       .  A
C158        H163   1.085       .  S
C159        C160   1.417       .  A
C159        C166   1.445       .  S
C160        C161   1.407       .  A
C161        C162   1.404       .  A
C161        H164   1.085       .  S
C162        C165   1.444       .  S
C165        N167   1.157       .  T
C166        N168   1.158       .  T
C169       C1562   1.402   1_455  A
C169        C522   1.414   1_554  A
C170        C171   1.401       .  A
C170       C1561   1.402       .  A
C170        H175   1.087       .  S
C171        C520   1.416   1_554  A
C171        C178   1.445       .  S
C172        C519   1.416       .  A
C172       C1565   1.403       .  A
C173        C174   1.402       .  A
C173       C1564   1.403   1_455  A
C173        H176   1.086       .  S
C174        C517   1.414       .  A
C174        C177   1.445       .  S
C177        N179   1.157       .  T
C178        N180   1.157       .  T
C181        C182   1.405       .  A
C181        C186   1.414       .  A
C182       C1575   1.396   1_455  A
C182        H187   1.085       .  S
C183        C184   1.412       .  A
C183       C1574   1.396       .  A
C183        C190   1.446       .  S
C184        C185   1.404       .  A
C185       C1578   1.403       .  A
C185        H188   1.085       .  S
C186       C1577   1.403   1_455  A
C186        C189   1.444       .  S
C189        N191   1.157       .  T
C190        N192   1.157       .  T
C193        C194   1.404       .  A
C193        C198   1.418       .  A
C194        C195   1.400       .  A
C194        H199   1.085       .  S
C195        C196   1.414       .  A
C195        C202   1.445       .  S
C196        C197   1.400       .  A
C197        C198   1.398       .  A
C197        H200   1.085       .  S
C198        C201   1.445       .  S
C201        N203   1.157       .  T
C202        N204   1.157       .  T
C205        C206   1.405       .  A
C205        C558   1.414       .  A
C206        C207   1.397       .  A
C206        H211   1.086       .  S
C207        C556   1.415       .  A
C207        C214   1.446       .  S
C208        C209   1.406       .  A
C208        C555   1.415       .  A
C209        C210   1.404   1_554  A
C209        H212   1.086       .  S
C210        C553   1.414       .  A
C210        C213   1.443       .  S
C213        N215   1.157       .  T
C214        N216   1.157       .  T
C217        C566   1.405       .  A
C217        C918   1.417   1_554  A
C218        C219   1.401       .  A
C218        C565   1.405       .  A
C218        H223   1.086       .  S
C219        C916   1.413       .  A
C219        C226   1.445       .  S
C220        C915   1.413       .  A
C220        C569   1.402   1_545  A
C221        C222   1.400       .  A
C221        C568   1.402   1_565  A
C221        H224   1.086       .  S
C222        C913   1.417   1_556  A
C222        C225   1.445       .  S
C225        N227   1.157       .  T
C226        N228   1.157       .  T
C229        C230   1.404       .  A
C229        C234   1.412       .  A
C230        C927   1.399       .  A
C230        H235   1.085       .  S
C231        C232   1.418       .  A
C231        C926   1.399   1_545  A
C231        C238   1.445       .  S
C232        C233   1.408       .  A
C233        C930   1.404   1_545  A
C233        H236   1.084       .  S
C234        C929   1.404       .  A
C234        C237   1.443       .  S
C237        N239   1.157       .  T
C238        N240   1.158       .  T
C241        C242   1.407       .  A
C241        C246   1.413       .  A
C242        C243   1.400       .  A
C242        H247   1.085       .  S
C243       C1636   1.412       .  A
C243        C250   1.445       .  S
C244        C245   1.406       .  A
C244       C1635   1.412   1_455  A
C245       C1638   1.403       .  A
C245        H248   1.085       .  S
C246       C1637   1.403       .  A
C246       C1641   1.445       .  S
C249       C1638   1.445       .  S
C249        N251   1.158       .  T
C250        N252   1.157       .  T
C253        C254   1.409       .  A
C253        C258   1.419       .  A
C254       C1995   1.400   1_454  A
C254        H259   1.085       .  S
C255        C256   1.412       .  A
C255       C1994   1.400       .  A
C255        C262   1.445       .  S
C256        C257   1.402       .  A
C257       C1998   1.405       .  A
C257        H260   1.086       .  S
C258       C1997   1.405   1_454  A
C258        C261   1.443       .  S
C261        N263   1.157       .  T
C262        N264   1.157       .  T
C265        C266   1.408       .  A
C265        C270   1.416       .  A
C266        C267   1.402       .  A
C266        H271   1.083       .  S
C267        C268   1.417       .  A
C267        C274   1.444       .  S
C268        C269   1.409       .  A
C269        C270   1.400       .  A
C269        H272   1.084       .  S
C270        C273   1.445       .  S
C273        N275   1.157       .  T
C274        N276   1.157       .  T
C277        C278   1.408       .  A
C277        C282   1.417       .  A
C278        C975   1.406       .  A
C278        H283   1.085       .  S
C279        C280   1.413       .  A
C279        C974   1.406   1_545  A
C279        C286   1.444       .  S
C280        C281   1.403       .  A
C281        C978   1.399   1_545  A
C281        H284   1.085       .  S
C282        C977   1.399       .  A
C282        C285   1.445       .  S
C285        N287   1.157       .  T
C286        N288   1.157       .  T
C289        C638   1.404       .  A
C289        C990   1.413   1_545  A
C290        C291   1.401       .  A
C290        C637   1.404   1_554  A
C290        H295   1.085       .  S
C291        C988   1.415   1_545  A
C291        C298   1.445       .  S
C292        C987   1.415       .  A
C292        C641   1.405   1_554  A
C293        C294   1.401       .  A
C293        C640   1.405       .  A
C293        H296   1.085       .  S
C294        C985   1.413       .  A
C294        C297   1.445       .  S
C297        N299   1.157       .  T
C298        N300   1.157       .  T
C301        C302   1.409       .  A
C301        C306   1.419       .  A
C302        C651   1.406       .  A
C302        H307   1.083       .  S
C303        C304   1.411       .  A
C303        C650   1.406   1_554  A
C303        C310   1.444       .  S
C304        C305   1.401   1_554  A
C305        C654   1.399       .  A
C305        H308   1.084   1_556  S
C306        C653   1.399       .  A
C306        C309   1.445       .  S
C309        N311   1.157       .  T
C310        N312   1.157       .  T
C313        C314   1.400       .  A
C313        C318   1.409       .  A
C314        C315   1.398       .  A
C314        H319   1.085       .  S
C315        C316   1.418       .  A
C315        C322   1.445       .  S
C316        C317   1.408       .  A
C317        C318   1.403       .  A
C317        H320   1.085       .  S
C318        C321   1.444       .  S
C321        N323   1.157       .  T
C322        N324   1.157       .  T
C325        C326   1.404       .  A
C325        C330   1.420       .  A
C326        C327   1.399       .  A
C326        H331   1.085       .  S
C327        C328   1.420       .  A
C327        C334   1.444       .  S
C328        C329   1.408       .  A
C329        C330   1.406       .  A
C329        H332   1.085       .  S
C330        C333   1.445       .  S
C333        N335   1.158       .  T
C334        N336   1.157       .  T
C337        C338   1.406       .  A
C337        C342   1.417       .  A
C338        C339   1.401       .  A
C338        H343   1.083       .  S
C339        C340   1.418       .  A
C339        C346   1.445       .  S
C340        C341   1.406       .  A
C341        C342   1.401       .  A
C341        H344   1.083       .  S
C342        C345   1.445       .  S
C345        N347   1.157       .  T
C346        N348   1.157       .  T
Fe349       O365   2.056       .  S
Fe349       O355   2.086       .  S
Fe349       O362   2.073       .  S
Fe349       O354   2.054       .  S
Fe349       O360   1.958       .  S
Fe350       O353   2.056       .  S
Fe350       O357   2.083       .  S
Fe350       O361   2.068       .  S
Fe350       O366   2.085       .  S
Fe350       O360   1.958       .  S
Fe351       O369   2.077       .  S
Fe351       O356   2.058       .  S
Fe351       O363   2.060       .  S
Fe351       O352   2.086       .  S
Fe351       O360   1.960       .  S
O352        C359   1.273       .  A
O353        C367   1.266       .  A
O354        C359   1.268       .  A
O355        C358   1.273       .  A
O356        C368   1.269       .  A
O357        C370   1.274       .  A
C358        O363   1.267       .  A
C358        C652   1.481       .  S
C359        C640   1.483       .  S
O361        C364   1.269       .  A
O362        C364   1.270       .  A
C364        C625   1.491       .  S
O365        C370   1.270       .  A
O366        C368   1.276       .  A
C367        O369   1.272       .  A
C367        C688   1.491       .  S
C368        C673   1.497       .  S
C370        C661   1.474       .  S
Fe371       O387   2.072       .  S
Fe371       O377   2.065       .  S
Fe371       O384   2.061       .  S
Fe371       O376   2.070       .  S
Fe371       O382   1.966       .  S
Fe372       O375   2.063       .  S
Fe372       O379   2.068       .  S
Fe372       O383   2.073       .  S
Fe372       O388   2.065       .  S
Fe372       O382   1.964       .  S
Fe373       O391   2.077       .  S
Fe373       O378   2.069       .  S
Fe373       O385   2.068       .  S
Fe373       O374   2.069       .  S
Fe373       O382   1.969       .  S
O374        C381   1.269       .  A
O375        C389   1.268       .  A
O376        C381   1.270       .  A
O377        C380   1.271       .  A
O378        C390   1.271       .  A
O379        C392   1.269       .  A
C380        O385   1.270       .  A
C380        C565   1.485       .  S
C381        C601   1.496       .  S
O383        C386   1.270       .  A
O384        C386   1.269       .  A
C386        C592   1.483       .  S
O387        C392   1.271       .  A
O388        C390   1.270       .  A
C389        O391   1.272       .  A
C389        C676   1.499       .  S
C390        C613   1.494       .  S
C392        C577   1.486       .  S
Fe393       O409   2.066       .  S
Fe393       O399   2.062       .  S
Fe393       O406   2.065       .  S
Fe393       O398   2.064       .  S
Fe393       O404   1.966       .  S
Fe394       O397   2.068       .  S
Fe394       O401   2.064       .  S
Fe394       O405   2.073       .  S
Fe394       O410   2.069       .  S
Fe394       O404   1.969       .  S
Fe395       O413   2.069       .  S
Fe395       O400   2.061       .  S
Fe395       O407   2.064       .  S
Fe395       O396   2.062       .  S
Fe395       O404   1.969       .  S
O396        C403   1.269       .  A
O397        C411   1.270       .  A
O398        C403   1.269       .  A
O399        C402   1.270       .  A
O400        C412   1.269       .  A
O401        C414   1.269       .  A
C402        O407   1.268       .  A
C402        C544   1.476       .  S
C403        C529   1.483       .  S
O405        C408   1.271       .  A
O406        C408   1.270       .  A
C408        C517   1.480       .  S
O409        C414   1.269       .  A
O410        C412   1.270       .  A
C411        O413   1.271       .  A
C411        C685   1.493       .  S
C412        C616   1.496       .  S
C414        C556   1.485       .  S
Fe415       O431   2.068       .  S
Fe415       O421   2.057       .  S
Fe415       O428   2.066       .  S
Fe415       O420   2.066       .  S
Fe415       O426   1.962       .  S
Fe416       O419   2.067       .  S
Fe416       O423   2.060       .  S
Fe416       O427   2.072       .  S
Fe416       O432   2.060       .  S
Fe416       O426   1.965       .  S
Fe417       O435   2.068       .  S
Fe417       O422   2.080       .  S
Fe417       O429   2.087       .  S
Fe417       O418   2.072       .  S
Fe417       O426   1.969       .  S
O418        C425   1.269       .  A
O419        C433   1.270       .  A
O420        C425   1.268       .  A
O421        C424   1.269       .  A
O422        C434   1.273       .  A
O423        C436   1.268       .  A
C424        O429   1.274       .  A
C424        C649   1.493       .  S
C425        C604   1.482       .  S
O427        C430   1.271       .  A
O428        C430   1.270       .  A
C430        C589   1.485       .  S
O431        C436   1.268       .  A
O432        C434   1.269       .  A
C433        O435   1.270       .  A
C433        C493   1.497       .  S
C434        C508   1.492       .  S
C436        C664   1.488       .  S
Fe437       O453   2.059       .  S
Fe437       O443   2.066       .  S
Fe437       O450   2.072       .  S
Fe437       O442   2.054       .  S
Fe437       O448   1.977       .  S
Fe438       O441   2.056       .  S
Fe438       O445   2.073       .  S
Fe438       O449   2.057       .  S
Fe438       O454   2.072       .  S
Fe438       O448   1.981       .  S
Fe439       O457   2.065       .  S
Fe439       O444   2.063       .  S
Fe439       O451   2.071       .  S
Fe439       O440   2.070       .  S
Fe439       O448   1.980       .  S
O440        C447   1.270       .  A
O441        C455   1.266       .  A
O442        C447   1.268       .  A
O443        C446   1.269       .  A
O444        C456   1.270       .  A
O445        C458   1.271       .  A
C446        O451   1.268       .  A
C446        C628   1.486       .  S
C447        C532   1.478       .  S
O449        C452   1.266       .  A
O450        C452   1.269       .  A
C452        C520   1.483       .  S
O453        C458   1.269       .  A
O454        C456   1.270       .  A
C455        O457   1.270       .  A
C455        C484   1.494       .  S
C456        C505   1.497       .  S
C458        C637   1.480       .  S
Fe459       O475   2.064       .  S
Fe459       O465   2.065       .  S
Fe459       O472   2.059       .  S
Fe459       O464   2.068       .  S
Fe459       O470   1.963       .  S
Fe460       O463   2.073       .  S
Fe460       O467   2.069       .  S
Fe460       O471   2.076       .  S
Fe460       O476   2.073       .  S
Fe460       O470   1.968       .  S
Fe461       O479   2.063       .  S
Fe461       O466   2.054       .  S
Fe461       O473   2.058       .  S
Fe461       O462   2.066       .  S
Fe461       O470   1.961       .  S
O462        C469   1.269       .  A
O463        C477   1.271       .  A
O464        C469   1.268       .  A
O465        C468   1.271       .  A
O466        C478   1.267       .  A
O467        C480   1.270       .  A
C468        O473   1.268       .  A
C468        C541   1.482       .  S
C469        C580   1.491       .  S
O471        C474   1.271       .  A
O472        C474   1.269       .  A
C474        C568   1.479       .  S
O475        C480   1.269       .  A
O476        C478   1.272       .  A
C477        O479   1.269       .  A
C477        C496   1.492       .  S
C478        C481   1.494       .  S
C480        C553   1.487       .  S
C481        C482   1.406       .  A
C481        C486   1.421       .  A
C482        C483   1.401       .  A
C482        H487   1.085       .  S
C483        C484   1.419       .  A
C483        C490   1.445       .  S
C484        C485   1.405       .  A
C485        C486   1.398       .  A
C485        H488   1.085       .  S
C486        C489   1.446       .  S
C489        N491   1.158       .  T
C490        N492   1.157       .  T
C493        C494   1.408       .  A
C493        C498   1.417       .  A
C494        C495   1.400       .  A
C494        H499   1.084       .  S
C495        C496   1.416       .  A
C495        C502   1.445       .  S
C496        C497   1.407       .  A
C497        C498   1.403       .  A
C497        H500   1.084       .  S
C498        C501   1.444       .  S
C501        N503   1.157       .  T
C502        N504   1.157       .  T
C505        C506   1.408       .  A
C505        C510   1.418       .  A
C506        C507   1.399       .  A
C506        H511   1.085       .  S
C507        C508   1.417       .  A
C507        C514   1.445       .  S
C508        C509   1.407       .  A
C509        C510   1.404       .  A
C509        H512   1.085       .  S
C510        C513   1.444       .  S
C513        N515   1.157       .  T
C514        N516   1.158       .  T
C517       C1910   1.402   1_455  A
C518       C1909   1.402       .  A
C518        C519   1.401       .  A
C518        H523   1.087       .  S
C519        C526   1.445       .  S
C520       C1913   1.403       .  A
C521       C1912   1.403   1_455  A
C521        C522   1.402       .  A
C521        H524   1.086       .  S
C522        C525   1.445       .  S
C525        N527   1.157       .  T
C526        N528   1.157       .  T
C529        C530   1.405       .  A
C529        C534   1.414       .  A
C530       C1923   1.396   1_455  A
C530        H535   1.085       .  S
C531       C1922   1.396       .  A
C531        C532   1.412       .  A
C531        C538   1.446       .  S
C532        C533   1.404       .  A
C533       C1926   1.403       .  A
C533        H536   1.085       .  S
C534       C1925   1.403   1_455  A
C534        C537   1.444       .  S
C537        N539   1.157       .  T
C538        N540   1.157       .  T
C541        C542   1.404       .  A
C541        C546   1.418       .  A
C542        C543   1.400       .  A
C542        H547   1.085       .  S
C543        C544   1.414       .  A
C543        C550   1.445       .  S
C544        C545   1.400       .  A
C545        C546   1.398       .  A
C545        H548   1.085       .  S
C546        C549   1.445       .  S
C549        N551   1.157       .  T
C550        N552   1.157       .  T
C553        C554   1.405       .  A
C554        C555   1.397   1_556  A
C554        H559   1.086       .  S
C555        C562   1.446       .  S
C556        C557   1.406       .  A
C557        C558   1.404       .  A
C557        H560   1.086       .  S
C558        C561   1.443       .  S
C561        N563   1.157       .  T
C562        N564   1.157       .  T
C565       C1266   1.417       .  A
C566        C567   1.401       .  A
C566        H571   1.086       .  S
C567       C1264   1.413   1_554  A
C567        C574   1.445       .  S
C568       C1263   1.413   1_556  A
C569        C570   1.400       .  A
C569        H572   1.086       .  S
C570       C1261   1.417       .  A
C570        C573   1.445       .  S
C573        N575   1.157       .  T
C574        N576   1.157       .  T
C577        C578   1.404       .  A
C577        C582   1.412       .  A
C578       C1275   1.399       .  A
C578        H583   1.085       .  S
C579       C1274   1.399   1_545  A
C579        C580   1.418       .  A
C579        C586   1.445       .  S
C580        C581   1.408       .  A
C581       C1278   1.404   1_545  A
C581        H584   1.084       .  S
C582       C1277   1.404       .  A
C582        C585   1.443       .  S
C585        N587   1.157       .  T
C586        N588   1.158       .  T
C589        C590   1.407       .  A
C589        C594   1.413       .  A
C590        C591   1.400       .  A
C590        H595   1.085       .  S
C591       C1984   1.412       .  A
C591        C598   1.445       .  S
C592       C1983   1.412   1_455  A
C592        C593   1.406       .  A
C593       C1986   1.403       .  A
C593        H596   1.085       .  S
C594       C1985   1.402       .  A
C594       C1989   1.445       .  S
C597       C1986   1.445       .  S
C597        N599   1.158       .  T
C598        N600   1.157       .  T
C601        C602   1.409       .  A
C601        C606   1.419       .  A
C602       C1647   1.400   1_455  A
C602        H607   1.085       .  S
C603       C1646   1.400   1_556  A
C603        C604   1.412       .  A
C603        C610   1.445       .  S
C604        C605   1.402       .  A
C605       C1650   1.405   1_556  A
C605        H608   1.086       .  S
C606       C1649   1.405   1_455  A
C606        C609   1.443       .  S
C609        N611   1.157       .  T
C610        N612   1.157       .  T
C613        C614   1.408       .  A
C613        C618   1.416       .  A
C614        C615   1.402       .  A
C614        H619   1.083       .  S
C615        C616   1.417       .  A
C615        C622   1.444       .  S
C616        C617   1.409       .  A
C617        C618   1.400       .  A
C617        H620   1.084       .  S
C618        C621   1.445       .  S
C621        N623   1.157       .  T
C622        N624   1.157       .  T
C625        C626   1.408       .  A
C625        C630   1.417       .  A
C626       C1323   1.406       .  A
C626        H631   1.085       .  S
C627       C1322   1.406   1_545  A
C627        C628   1.413       .  A
C627        C634   1.444       .  S
C628        C629   1.403       .  A
C629       C1326   1.399   1_545  A
C629        H632   1.085       .  S
C630       C1325   1.399       .  A
C630        C633   1.445       .  S
C633        N635   1.157       .  T
C634        N636   1.157       .  T
C637       C1338   1.413   1_545  A
C638        C639   1.401       .  A
C638        H643   1.085       .  S
C639       C1336   1.415   1_545  A
C639        C646   1.445       .  S
C640       C1335   1.415       .  A
C641        C642   1.401       .  A
C641        H644   1.085       .  S
C642       C1333   1.413       .  A
C642        C645   1.445       .  S
C645        N647   1.157       .  T
C646        N648   1.157       .  T
C649        C650   1.409       .  A
C649        C654   1.419       .  A
C650        H655   1.083       .  S
C651        C652   1.411       .  A
C651        C658   1.444       .  S
C652        C653   1.401       .  A
C653        H656   1.084       .  S
C654        C657   1.445       .  S
C657        N659   1.157       .  T
C658        N660   1.157       .  T
C661        C662   1.400       .  A
C661        C666   1.409       .  A
C662        C663   1.398       .  A
C662        H667   1.085       .  S
C663        C664   1.418       .  A
C663        C670   1.445       .  S
C664        C665   1.408       .  A
C665        C666   1.403       .  A
C665        H668   1.085       .  S
C666        C669   1.444       .  S
C669        N671   1.157       .  T
C670        N672   1.157       .  T
C673        C674   1.404       .  A
C673        C678   1.420       .  A
C674        C675   1.399       .  A
C674        H679   1.085       .  S
C675        C676   1.420       .  A
C675        C682   1.444       .  S
C676        C677   1.408       .  A
C677        C678   1.406       .  A
C677        H680   1.085       .  S
C678        C681   1.445       .  S
C681        N683   1.158       .  T
C682        N684   1.157       .  T
C685        C686   1.406       .  A
C685        C690   1.417       .  A
C686        C687   1.401       .  A
C686        H691   1.083       .  S
C687        C688   1.418       .  A
C687        C694   1.445       .  S
C688        C689   1.406       .  A
C689        C690   1.401       .  A
C689        H692   1.083       .  S
C690        C693   1.445       .  S
C693        N695   1.157       .  T
C694        N696   1.157       .  T
Fe697       O713   2.056       .  S
Fe697       O703   2.086       .  S
Fe697       O710   2.073       .  S
Fe697       O702   2.054       .  S
Fe697       O708   1.958       .  S
Fe698       O701   2.056       .  S
Fe698       O705   2.083       .  S
Fe698       O709   2.068       .  S
Fe698       O714   2.084       .  S
Fe698       O708   1.958       .  S
Fe699       O717   2.078       .  S
Fe699       O704   2.058       .  S
Fe699       O711   2.060       .  S
Fe699       O700   2.086       .  S
Fe699       O708   1.960       .  S
O700        C707   1.273       .  A
O701        C715   1.266       .  A
O702        C707   1.268       .  A
O703        C706   1.273       .  A
O704        C716   1.269       .  A
O705        C718   1.274       .  A
C706        O711   1.267       .  A
C706       C1000   1.481       .  S
C707        C988   1.483       .  S
O709        C712   1.269       .  A
O710        C712   1.270       .  A
C712        C973   1.491       .  S
O713        C718   1.270       .  A
O714        C716   1.276       .  A
C715        O717   1.272       .  A
C715       C1036   1.492       .  S
C716       C1021   1.497       .  S
C718       C1009   1.474       .  S
Fe719       O735   2.072       .  S
Fe719       O725   2.065       .  S
Fe719       O732   2.061       .  S
Fe719       O724   2.070       .  S
Fe719       O730   1.966       .  S
Fe720       O723   2.063       .  S
Fe720       O727   2.068       .  S
Fe720       O731   2.073       .  S
Fe720       O736   2.065       .  S
Fe720       O730   1.964       .  S
Fe721       O739   2.077       .  S
Fe721       O726   2.069       .  S
Fe721       O733   2.068       .  S
Fe721       O722   2.069       .  S
Fe721       O730   1.969       .  S
O722        C729   1.269       .  A
O723        C737   1.268       .  A
O724        C729   1.270       .  A
O725        C728   1.271       .  A
O726        C738   1.271       .  A
O727        C740   1.269       .  A
C728        O733   1.270       .  A
C728        C913   1.485       .  S
C729        C949   1.496       .  S
O731        C734   1.270       .  A
O732        C734   1.269       .  A
C734        C940   1.483       .  S
O735        C740   1.271       .  A
O736        C738   1.270       .  A
C737        O739   1.272       .  A
C737       C1024   1.499       .  S
C738        C961   1.494       .  S
C740        C925   1.486       .  S
Fe741       O757   2.066       .  S
Fe741       O747   2.062       .  S
Fe741       O754   2.065       .  S
Fe741       O746   2.064       .  S
Fe741       O752   1.966       .  S
Fe742       O745   2.068       .  S
Fe742       O749   2.064       .  S
Fe742       O753   2.072       .  S
Fe742       O758   2.069       .  S
Fe742       O752   1.969       .  S
Fe743       O761   2.069       .  S
Fe743       O748   2.061       .  S
Fe743       O755   2.064       .  S
Fe743       O744   2.063       .  S
Fe743       O752   1.969       .  S
O744        C751   1.269       .  A
O745        C759   1.270       .  A
O746        C751   1.269       .  A
O747        C750   1.270       .  A
O748        C760   1.269       .  A
O749        C762   1.269       .  A
C750        O755   1.268       .  A
C750        C892   1.476       .  S
C751        C877   1.483       .  S
O753        C756   1.270       .  A
O754        C756   1.270       .  A
C756        C865   1.480       .  S
O757        C762   1.269       .  A
O758        C760   1.270       .  A
C759        O761   1.271       .  A
C759       C1033   1.493       .  S
C760        C964   1.496       .  S
C762        C904   1.486       .  S
Fe763       O779   2.068       .  S
Fe763       O769   2.056       .  S
Fe763       O776   2.066       .  S
Fe763       O768   2.066       .  S
Fe763       O774   1.962       .  S
Fe764       O767   2.067       .  S
Fe764       O771   2.061       .  S
Fe764       O775   2.072       .  S
Fe764       O780   2.060       .  S
Fe764       O774   1.965       .  S
Fe765       O783   2.068       .  S
Fe765       O770   2.079       .  S
Fe765       O777   2.086       .  S
Fe765       O766   2.072       .  S
Fe765       O774   1.969       .  S
O766        C773   1.269       .  A
O767        C781   1.270       .  A
O768        C773   1.268       .  A
O769        C772   1.269       .  A
O770        C782   1.273       .  A
O771        C784   1.268       .  A
C772        O777   1.274       .  A
C772        C997   1.492       .  S
C773        C952   1.482       .  S
O775        C778   1.271       .  A
O776        C778   1.270       .  A
C778        C937   1.485       .  S
O779        C784   1.268       .  A
O780        C782   1.269       .  A
C781        O783   1.270       .  A
C781        C841   1.497       .  S
C782        C856   1.492       .  S
C784       C1012   1.488       .  S
Fe785       O801   2.059       .  S
Fe785       O791   2.066       .  S
Fe785       O798   2.072       .  S
Fe785       O790   2.054       .  S
Fe785       O796   1.977       .  S
Fe786       O789   2.056       .  S
Fe786       O793   2.073       .  S
Fe786       O797   2.057       .  S
Fe786       O802   2.072       .  S
Fe786       O796   1.981       .  S
Fe787       O805   2.065       .  S
Fe787       O792   2.063       .  S
Fe787       O799   2.071       .  S
Fe787       O788   2.070       .  S
Fe787       O796   1.980       .  S
O788        C795   1.270       .  A
O789        C803   1.266       .  A
O790        C795   1.268       .  A
O791        C794   1.269       .  A
O792        C804   1.270       .  A
O793        C806   1.271       .  A
C794        O799   1.268       .  A
C794        C976   1.486       .  S
C795        C880   1.478       .  S
O797        C800   1.266       .  A
O798        C800   1.269       .  A
C800        C868   1.483       .  S
O801        C806   1.269       .  A
O802        C804   1.270       .  A
C803        O805   1.270       .  A
C803        C832   1.494       .  S
C804        C853   1.497       .  S
C806        C985   1.480       .  S
Fe807       O823   2.064       .  S
Fe807       O813   2.065       .  S
Fe807       O820   2.059       .  S
Fe807       O812   2.068       .  S
Fe807       O818   1.963       .  S
Fe808       O811   2.073       .  S
Fe808       O815   2.069       .  S
Fe808       O819   2.075       .  S
Fe808       O824   2.073       .  S
Fe808       O818   1.968       .  S
Fe809       O827   2.063       .  S
Fe809       O814   2.054       .  S
Fe809       O821   2.058       .  S
Fe809       O810   2.066       .  S
Fe809       O818   1.961       .  S
O810        C817   1.269       .  A
O811        C825   1.271       .  A
O812        C817   1.268       .  A
O813        C816   1.270       .  A
O814        C826   1.267       .  A
O815        C828   1.270       .  A
C816        O821   1.268       .  A
C816        C889   1.482       .  S
C817        C928   1.491       .  S
O819        C822   1.271       .  A
O820        C822   1.269       .  A
C822        C916   1.479       .  S
O823        C828   1.270       .  A
O824        C826   1.272       .  A
C825        O827   1.269       .  A
C825        C844   1.492       .  S
C826        C829   1.494       .  S
C828        C901   1.487       .  S
C829        C830   1.406       .  A
C829        C834   1.421       .  A
C830        C831   1.401       .  A
C830        H835   1.085       .  S
C831        C832   1.419       .  A
C831        C838   1.445       .  S
C832        C833   1.405       .  A
C833        C834   1.398       .  A
C833        H836   1.085       .  S
C834        C837   1.446       .  S
C837        N839   1.158       .  T
C838        N840   1.157       .  T
C841        C842   1.408       .  A
C841        C846   1.417       .  A
C842        C843   1.400       .  A
C842        H847   1.084       .  S
C843        C844   1.416       .  A
C843        C850   1.445       .  S
C844        C845   1.407       .  A
C845        C846   1.403       .  A
C845        H848   1.084       .  S
C846        C849   1.444       .  S
C849        N851   1.157       .  T
C850        N852   1.157       .  T
C853        C854   1.408       .  A
C853        C858   1.418       .  A
C854        C855   1.399       .  A
C854        H859   1.085       .  S
C855        C856   1.417       .  A
C855        C862   1.445       .  S
C856        C857   1.407       .  A
C857        C858   1.404       .  A
C857        H860   1.085       .  S
C858        C861   1.444       .  S
C861        N863   1.157       .  T
C862        N864   1.158       .  T
C865       C2258   1.402   1_455  A
C865       C1218   1.414   1_554  A
C866       C2257   1.402       .  A
C866        C867   1.401       .  A
C866        H871   1.087       .  S
C867       C1216   1.416   1_554  A
C867        C874   1.445       .  S
C868       C1215   1.416       .  A
C868       C2261   1.403       .  A
C869       C2260   1.403   1_455  A
C869        C870   1.402       .  A
C869        H872   1.086       .  S
C870       C1213   1.414       .  A
C870        C873   1.445       .  S
C873        N875   1.157       .  T
C874        N876   1.157       .  T
C877        C878   1.405       .  A
C877        C882   1.414       .  A
C878       C2271   1.396   1_455  A
C878        H883   1.085       .  S
C879       C2270   1.396       .  A
C879        C880   1.412       .  A
C879        C886   1.446       .  S
C880        C881   1.404       .  A
C881       C2274   1.403       .  A
C881        H884   1.085       .  S
C882       C2273   1.403   1_455  A
C882        C885   1.444       .  S
C885        N887   1.157       .  T
C886        N888   1.157       .  T
C889        C890   1.404       .  A
C889        C894   1.418       .  A
C890        C891   1.400       .  A
C890        H895   1.085       .  S
C891        C892   1.414       .  A
C891        C898   1.445       .  S
C892        C893   1.400       .  A
C893        C894   1.398       .  A
C893        H896   1.085       .  S
C894        C897   1.445       .  S
C897        N899   1.157       .  T
C898        N900   1.157       .  T
C901        C902   1.406       .  A
C901       C1254   1.414       .  A
C902        C903   1.397       .  A
C902        H907   1.086       .  S
C903       C1252   1.415       .  A
C903        C910   1.446       .  S
C904       C1251   1.415       .  A
C904        C905   1.406       .  A
C905        C906   1.404   1_554  A
C905        H908   1.086       .  S
C906       C1249   1.414       .  A
C906        C909   1.443       .  S
C909        N911   1.157       .  T
C910        N912   1.157       .  T
C913       C1262   1.405   1_565  A
C914       C1261   1.405   1_545  A
C914        C915   1.401       .  A
C914        H919   1.086       .  S
C915        C922   1.445       .  S
C916       C1265   1.402       .  A
C917       C1264   1.402       .  A
C917        C918   1.400       .  A
C917        H920   1.086       .  S
C918        C921   1.445       .  S
C921        N923   1.157       .  T
C922        N924   1.157       .  T
C925        C926   1.404       .  A
C925        C930   1.412       .  A
C926        H931   1.085       .  S
C927        C928   1.418       .  A
C927        C934   1.445       .  S
C928        C929   1.408       .  A
C929        H932   1.084       .  S
C930        C933   1.443       .  S
C933        N935   1.157       .  T
C934        N936   1.158       .  T
C937        C938   1.407       .  A
C937        C942   1.413       .  A
C938        C939   1.400       .  A
C938        H943   1.085       .  S
C939       C2332   1.412       .  A
C939        C946   1.445       .  S
C940       C2331   1.412   1_455  A
C940        C941   1.406       .  A
C941       C2334   1.403       .  A
C941        H944   1.085       .  S
C942       C2333   1.403       .  A
C942       C2337   1.445       .  S
C945       C2334   1.445       .  S
C945        N947   1.158       .  T
C946        N948   1.157       .  T
C949        C950   1.409       .  A
C949        C954   1.419       .  A
C950       C2691   1.400   1_454  A
C950        H955   1.085       .  S
C951       C2690   1.400       .  A
C951        C952   1.412       .  A
C951        C958   1.445       .  S
C952        C953   1.402       .  A
C953       C2694   1.405       .  A
C953        H956   1.086       .  S
C954       C2693   1.405   1_454  A
C954        C957   1.443       .  S
C957        N959   1.157       .  T
C958        N960   1.157       .  T
C961        C962   1.408       .  A
C961        C966   1.416       .  A
C962        C963   1.402       .  A
C962        H967   1.083       .  S
C963        C964   1.417       .  A
C963        C970   1.444       .  S
C964        C965   1.409       .  A
C965        C966   1.400       .  A
C965        H968   1.084       .  S
C966        C969   1.445       .  S
C969        N971   1.157       .  T
C970        N972   1.157       .  T
C973        C974   1.408       .  A
C973        C978   1.417       .  A
C974        H979   1.085       .  S
C975        C976   1.413       .  A
C975        C982   1.444       .  S
C976        C977   1.403       .  A
C977        H980   1.085       .  S
C978        C981   1.445       .  S
C981        N983   1.157       .  T
C982        N984   1.157       .  T
C985       C1334   1.404       .  A
C986       C1333   1.404   1_554  A
C986        C987   1.401       .  A
C986        H991   1.085       .  S
C987        C994   1.445       .  S
C988       C1337   1.405   1_554  A
C989       C1336   1.405       .  A
C989        C990   1.401       .  A
C989        H992   1.085       .  S
C990        C993   1.445       .  S
C993        N995   1.157       .  T
C994        N996   1.157       .  T
C997        C998   1.409       .  A
C997       C1002   1.419       .  A
C998       C1347   1.406       .  A
C998       H1003   1.083       .  S
C999       C1346   1.406   1_554  A
C999       C1000   1.411       .  A
C999       C1006   1.444       .  S
C1000      C1001   1.401   1_554  A
C1001      C1350   1.399       .  A
C1001      H1004   1.084   1_556  S
C1002      C1349   1.399       .  A
C1002      C1005   1.445       .  S
C1005      N1007   1.157       .  T
C1006      N1008   1.157       .  T
C1009      C1010   1.400       .  A
C1009      C1014   1.409       .  A
C1010      C1011   1.398       .  A
C1010      H1015   1.085       .  S
C1011      C1012   1.418       .  A
C1011      C1018   1.445       .  S
C1012      C1013   1.408       .  A
C1013      C1014   1.403       .  A
C1013      H1016   1.085       .  S
C1014      C1017   1.444       .  S
C1017      N1019   1.157       .  T
C1018      N1020   1.157       .  T
C1021      C1022   1.404       .  A
C1021      C1026   1.420       .  A
C1022      C1023   1.399       .  A
C1022      H1027   1.085       .  S
C1023      C1024   1.420       .  A
C1023      C1030   1.444       .  S
C1024      C1025   1.408       .  A
C1025      C1026   1.406       .  A
C1025      H1028   1.085       .  S
C1026      C1029   1.445       .  S
C1029      N1031   1.158       .  T
C1030      N1032   1.157       .  T
C1033      C1034   1.406       .  A
C1033      C1038   1.417       .  A
C1034      C1035   1.401       .  A
C1034      H1039   1.083       .  S
C1035      C1036   1.418       .  A
C1035      C1042   1.445       .  S
C1036      C1037   1.406       .  A
C1037      C1038   1.401       .  A
C1037      H1040   1.083       .  S
C1038      C1041   1.445       .  S
C1041      N1043   1.157       .  T
C1042      N1044   1.157       .  T
Fe1045     O1061   2.056       .  S
Fe1045     O1051   2.086       .  S
Fe1045     O1058   2.073       .  S
Fe1045     O1050   2.054       .  S
Fe1045     O1056   1.958       .  S
Fe1046     O1049   2.056       .  S
Fe1046     O1053   2.083       .  S
Fe1046     O1057   2.068       .  S
Fe1046     O1062   2.085       .  S
Fe1046     O1056   1.958       .  S
Fe1047     O1065   2.077       .  S
Fe1047     O1052   2.058       .  S
Fe1047     O1059   2.060       .  S
Fe1047     O1048   2.086       .  S
Fe1047     O1056   1.960       .  S
O1048      C1055   1.273       .  A
O1049      C1063   1.266       .  A
O1050      C1055   1.268       .  A
O1051      C1054   1.273       .  A
O1052      C1064   1.269       .  A
O1053      C1066   1.274       .  A
C1054      O1059   1.267       .  A
C1054      C1348   1.481       .  S
C1055      C1336   1.483       .  S
O1057      C1060   1.269       .  A
O1058      C1060   1.270       .  A
C1060      C1321   1.491       .  S
O1061      C1066   1.270       .  A
O1062      C1064   1.276       .  A
C1063      O1065   1.272       .  A
C1063      C1384   1.491       .  S
C1064      C1369   1.497       .  S
C1066      C1357   1.474       .  S
Fe1067     O1083   2.072       .  S
Fe1067     O1073   2.065       .  S
Fe1067     O1080   2.061       .  S
Fe1067     O1072   2.070       .  S
Fe1067     O1078   1.966       .  S
Fe1068     O1071   2.063       .  S
Fe1068     O1075   2.068       .  S
Fe1068     O1079   2.073       .  S
Fe1068     O1084   2.065       .  S
Fe1068     O1078   1.964       .  S
Fe1069     O1087   2.077       .  S
Fe1069     O1074   2.069       .  S
Fe1069     O1081   2.068       .  S
Fe1069     O1070   2.069       .  S
Fe1069     O1078   1.969       .  S
O1070      C1077   1.269       .  A
O1071      C1085   1.268       .  A
O1072      C1077   1.270       .  A
O1073      C1076   1.271       .  A
O1074      C1086   1.271       .  A
O1075      C1088   1.269       .  A
C1076      O1081   1.270       .  A
C1076      C1261   1.485       .  S
C1077      C1297   1.496       .  S
O1079      C1082   1.270       .  A
O1080      C1082   1.269       .  A
C1082      C1288   1.483       .  S
O1083      C1088   1.271       .  A
O1084      C1086   1.270       .  A
C1085      O1087   1.272       .  A
C1085      C1372   1.499       .  S
C1086      C1309   1.494       .  S
C1088      C1273   1.486       .  S
Fe1089     O1105   2.066       .  S
Fe1089     O1095   2.062       .  S
Fe1089     O1102   2.065       .  S
Fe1089     O1094   2.064       .  S
Fe1089     O1100   1.966       .  S
Fe1090     O1093   2.068       .  S
Fe1090     O1097   2.064       .  S
Fe1090     O1101   2.073       .  S
Fe1090     O1106   2.069       .  S
Fe1090     O1100   1.969       .  S
Fe1091     O1109   2.069       .  S
Fe1091     O1096   2.061       .  S
Fe1091     O1103   2.064       .  S
Fe1091     O1092   2.062       .  S
Fe1091     O1100   1.969       .  S
O1092      C1099   1.269       .  A
O1093      C1107   1.270       .  A
O1094      C1099   1.269       .  A
O1095      C1098   1.270       .  A
O1096      C1108   1.269       .  A
O1097      C1110   1.269       .  A
C1098      O1103   1.268       .  A
C1098      C1240   1.476       .  S
C1099      C1225   1.483       .  S
O1101      C1104   1.271       .  A
O1102      C1104   1.270       .  A
C1104      C1213   1.480       .  S
O1105      C1110   1.269       .  A
O1106      C1108   1.270       .  A
C1107      O1109   1.271       .  A
C1107      C1381   1.493       .  S
C1108      C1312   1.496       .  S
C1110      C1252   1.485       .  S
Fe1111     O1127   2.068       .  S
Fe1111     O1117   2.057       .  S
Fe1111     O1124   2.066       .  S
Fe1111     O1116   2.066       .  S
Fe1111     O1122   1.962       .  S
Fe1112     O1115   2.067       .  S
Fe1112     O1119   2.060       .  S
Fe1112     O1123   2.072       .  S
Fe1112     O1128   2.060       .  S
Fe1112     O1122   1.965       .  S
Fe1113     O1131   2.068       .  S
Fe1113     O1118   2.080       .  S
Fe1113     O1125   2.087       .  S
Fe1113     O1114   2.072       .  S
Fe1113     O1122   1.969       .  S
O1114      C1121   1.269       .  A
O1115      C1129   1.270       .  A
O1116      C1121   1.268       .  A
O1117      C1120   1.269       .  A
O1118      C1130   1.273       .  A
O1119      C1132   1.268       .  A
C1120      O1125   1.274       .  A
C1120      C1345   1.493       .  S
C1121      C1300   1.482       .  S
O1123      C1126   1.271       .  A
O1124      C1126   1.270       .  A
C1126      C1285   1.485       .  S
O1127      C1132   1.268       .  A
O1128      C1130   1.269       .  A
C1129      O1131   1.270       .  A
C1129      C1189   1.497       .  S
C1130      C1204   1.492       .  S
C1132      C1360   1.488       .  S
Fe1133     O1149   2.059       .  S
Fe1133     O1139   2.066       .  S
Fe1133     O1146   2.072       .  S
Fe1133     O1138   2.054       .  S
Fe1133     O1144   1.977       .  S
Fe1134     O1137   2.056       .  S
Fe1134     O1141   2.073       .  S
Fe1134     O1145   2.057       .  S
Fe1134     O1150   2.072       .  S
Fe1134     O1144   1.981       .  S
Fe1135     O1153   2.065       .  S
Fe1135     O1140   2.063       .  S
Fe1135     O1147   2.071       .  S
Fe1135     O1136   2.070       .  S
Fe1135     O1144   1.980       .  S
O1136      C1143   1.270       .  A
O1137      C1151   1.266       .  A
O1138      C1143   1.268       .  A
O1139      C1142   1.269       .  A
O1140      C1152   1.270       .  A
O1141      C1154   1.271       .  A
C1142      O1147   1.268       .  A
C1142      C1324   1.486       .  S
C1143      C1228   1.478       .  S
O1145      C1148   1.266       .  A
O1146      C1148   1.269       .  A
C1148      C1216   1.483       .  S
O1149      C1154   1.269       .  A
O1150      C1152   1.270       .  A
C1151      O1153   1.270       .  A
C1151      C1180   1.494       .  S
C1152      C1201   1.497       .  S
C1154      C1333   1.480       .  S
Fe1155     O1171   2.064       .  S
Fe1155     O1161   2.065       .  S
Fe1155     O1168   2.059       .  S
Fe1155     O1160   2.068       .  S
Fe1155     O1166   1.963       .  S
Fe1156     O1159   2.073       .  S
Fe1156     O1163   2.069       .  S
Fe1156     O1167   2.076       .  S
Fe1156     O1172   2.073       .  S
Fe1156     O1166   1.968       .  S
Fe1157     O1175   2.063       .  S
Fe1157     O1162   2.054       .  S
Fe1157     O1169   2.058       .  S
Fe1157     O1158   2.066       .  S
Fe1157     O1166   1.961       .  S
O1158      C1165   1.269       .  A
O1159      C1173   1.271       .  A
O1160      C1165   1.268       .  A
O1161      C1164   1.271       .  A
O1162      C1174   1.267       .  A
O1163      C1176   1.270       .  A
C1164      O1169   1.268       .  A
C1164      C1237   1.482       .  S
C1165      C1276   1.491       .  S
O1167      C1170   1.271       .  A
O1168      C1170   1.269       .  A
C1170      C1264   1.479       .  S
O1171      C1176   1.269       .  A
O1172      C1174   1.272       .  A
C1173      O1175   1.269       .  A
C1173      C1192   1.492       .  S
C1174      C1177   1.494       .  S
C1176      C1249   1.487       .  S
C1177      C1178   1.406       .  A
C1177      C1182   1.421       .  A
C1178      C1179   1.401       .  A
C1178      H1183   1.085       .  S
C1179      C1180   1.419       .  A
C1179      C1186   1.445       .  S
C1180      C1181   1.405       .  A
C1181      C1182   1.398       .  A
C1181      H1184   1.085       .  S
C1182      C1185   1.446       .  S
C1185      N1187   1.158       .  T
C1186      N1188   1.157       .  T
C1189      C1190   1.408       .  A
C1189      C1194   1.417       .  A
C1190      C1191   1.400       .  A
C1190      H1195   1.084       .  S
C1191      C1192   1.416       .  A
C1191      C1198   1.445       .  S
C1192      C1193   1.407       .  A
C1193      C1194   1.403       .  A
C1193      H1196   1.084       .  S
C1194      C1197   1.444       .  S
C1197      N1199   1.157       .  T
C1198      N1200   1.157       .  T
C1201      C1202   1.408       .  A
C1201      C1206   1.418       .  A
C1202      C1203   1.399       .  A
C1202      H1207   1.085       .  S
C1203      C1204   1.417       .  A
C1203      C1210   1.445       .  S
C1204      C1205   1.407       .  A
C1205      C1206   1.404       .  A
C1205      H1208   1.085       .  S
C1206      C1209   1.444       .  S
C1209      N1211   1.157       .  T
C1210      N1212   1.158       .  T
C1213      C2606   1.402   1_455  A
C1214      C2605   1.402       .  A
C1214      C1215   1.401       .  A
C1214      H1219   1.087       .  S
C1215      C1222   1.445       .  S
C1216      C2609   1.403       .  A
C1217      C2608   1.403   1_455  A
C1217      C1218   1.402       .  A
C1217      H1220   1.086       .  S
C1218      C1221   1.445       .  S
C1221      N1223   1.157       .  T
C1222      N1224   1.157       .  T
C1225      C1226   1.405       .  A
C1225      C1230   1.414       .  A
C1226      C2619   1.396   1_455  A
C1226      H1231   1.085       .  S
C1227      C2618   1.396       .  A
C1227      C1228   1.412       .  A
C1227      C1234   1.446       .  S
C1228      C1229   1.404       .  A
C1229      C2622   1.403       .  A
C1229      H1232   1.085       .  S
C1230      C2621   1.403   1_455  A
C1230      C1233   1.444       .  S
C1233      N1235   1.157       .  T
C1234      N1236   1.157       .  T
C1237      C1238   1.404       .  A
C1237      C1242   1.418       .  A
C1238      C1239   1.400       .  A
C1238      H1243   1.085       .  S
C1239      C1240   1.414       .  A
C1239      C1246   1.445       .  S
C1240      C1241   1.400       .  A
C1241      C1242   1.398       .  A
C1241      H1244   1.085       .  S
C1242      C1245   1.445       .  S
C1245      N1247   1.157       .  T
C1246      N1248   1.157       .  T
C1249      C1250   1.405       .  A
C1250      C1251   1.397   1_556  A
C1250      H1255   1.086       .  S
C1251      C1258   1.446       .  S
C1252      C1253   1.406       .  A
C1253      C1254   1.404       .  A
C1253      H1256   1.086       .  S
C1254      C1257   1.443       .  S
C1257      N1259   1.157       .  T
C1258      N1260   1.157       .  T
C1262      C1263   1.401       .  A
C1262      H1267   1.086       .  S
C1263      C1270   1.445       .  S
C1265      C1266   1.400       .  A
C1265      H1268   1.086       .  S
C1266      C1269   1.445       .  S
C1269      N1271   1.157       .  T
C1270      N1272   1.157       .  T
C1273      C1274   1.404       .  A
C1273      C1278   1.412       .  A
C1274      H1279   1.085       .  S
C1275      C1276   1.418       .  A
C1275      C1282   1.445       .  S
C1276      C1277   1.408       .  A
C1277      H1280   1.084       .  S
C1278      C1281   1.443       .  S
C1281      N1283   1.157       .  T
C1282      N1284   1.158       .  T
C1285      C1286   1.407       .  A
C1285      C1290   1.413       .  A
C1286      C1287   1.400       .  A
C1286      H1291   1.085       .  S
C1287      C2680   1.412       .  A
C1287      C1294   1.445       .  S
C1288      C2679   1.412   1_455  A
C1288      C1289   1.406       .  A
C1289      C2682   1.403       .  A
C1289      H1292   1.085       .  S
C1290      C2681   1.402       .  A
C1290      C2685   1.445       .  S
C1293      C2682   1.445       .  S
C1293      N1295   1.158       .  T
C1294      N1296   1.157       .  T
C1297      C1298   1.409       .  A
C1297      C1302   1.419       .  A
C1298      C2343   1.400   1_455  A
C1298      H1303   1.085       .  S
C1299      C2342   1.400   1_556  A
C1299      C1300   1.412       .  A
C1299      C1306   1.445       .  S
C1300      C1301   1.402       .  A
C1301      C2346   1.405   1_556  A
C1301      H1304   1.086       .  S
C1302      C2345   1.405   1_455  A
C1302      C1305   1.443       .  S
C1305      N1307   1.157       .  T
C1306      N1308   1.157       .  T
C1309      C1310   1.408       .  A
C1309      C1314   1.416       .  A
C1310      C1311   1.402       .  A
C1310      H1315   1.083       .  S
C1311      C1312   1.417       .  A
C1311      C1318   1.444       .  S
C1312      C1313   1.409       .  A
C1313      C1314   1.400       .  A
C1313      H1316   1.084       .  S
C1314      C1317   1.445       .  S
C1317      N1319   1.157       .  T
C1318      N1320   1.157       .  T
C1321      C1322   1.408       .  A
C1321      C1326   1.417       .  A
C1322      H1327   1.085       .  S
C1323      C1324   1.413       .  A
C1323      C1330   1.444       .  S
C1324      C1325   1.403       .  A
C1325      H1328   1.085       .  S
C1326      C1329   1.445       .  S
C1329      N1331   1.157       .  T
C1330      N1332   1.157       .  T
C1334      C1335   1.401       .  A
C1334      H1339   1.085       .  S
C1335      C1342   1.445       .  S
C1337      C1338   1.401       .  A
C1337      H1340   1.085       .  S
C1338      C1341   1.445       .  S
C1341      N1343   1.157       .  T
C1342      N1344   1.157       .  T
C1345      C1346   1.409       .  A
C1345      C1350   1.419       .  A
C1346      H1351   1.083       .  S
C1347      C1348   1.411       .  A
C1347      C1354   1.444       .  S
C1348      C1349   1.401       .  A
C1349      H1352   1.084       .  S
C1350      C1353   1.445       .  S
C1353      N1355   1.157       .  T
C1354      N1356   1.157       .  T
C1357      C1358   1.400       .  A
C1357      C1362   1.409       .  A
C1358      C1359   1.398       .  A
C1358      H1363   1.085       .  S
C1359      C1360   1.418       .  A
C1359      C1366   1.445       .  S
C1360      C1361   1.408       .  A
C1361      C1362   1.403       .  A
C1361      H1364   1.085       .  S
C1362      C1365   1.444       .  S
C1365      N1367   1.157       .  T
C1366      N1368   1.157       .  T
C1369      C1370   1.404       .  A
C1369      C1374   1.420       .  A
C1370      C1371   1.399       .  A
C1370      H1375   1.085       .  S
C1371      C1372   1.420       .  A
C1371      C1378   1.444       .  S
C1372      C1373   1.408       .  A
C1373      C1374   1.406       .  A
C1373      H1376   1.085       .  S
C1374      C1377   1.445       .  S
C1377      N1379   1.158       .  T
C1378      N1380   1.157       .  T
C1381      C1382   1.406       .  A
C1381      C1386   1.417       .  A
C1382      C1383   1.401       .  A
C1382      H1387   1.083       .  S
C1383      C1384   1.418       .  A
C1383      C1390   1.445       .  S
C1384      C1385   1.406       .  A
C1385      C1386   1.401       .  A
C1385      H1388   1.083       .  S
C1386      C1389   1.445       .  S
C1389      N1391   1.157       .  T
C1390      N1392   1.157       .  T
Fe1393     O1409   2.056       .  S
Fe1393     O1399   2.086       .  S
Fe1393     O1406   2.073       .  S
Fe1393     O1398   2.054       .  S
Fe1393     O1404   1.958       .  S
Fe1394     O1397   2.056       .  S
Fe1394     O1401   2.083       .  S
Fe1394     O1405   2.068       .  S
Fe1394     O1410   2.084       .  S
Fe1394     O1404   1.958       .  S
Fe1395     O1413   2.078       .  S
Fe1395     O1400   2.058       .  S
Fe1395     O1407   2.060       .  S
Fe1395     O1396   2.086       .  S
Fe1395     O1404   1.960       .  S
O1396      C1403   1.273       .  A
O1397      C1411   1.266       .  A
O1398      C1403   1.268       .  A
O1399      C1402   1.273       .  A
O1400      C1412   1.269       .  A
O1401      C1414   1.274       .  A
C1402      O1407   1.267       .  A
C1402      C1696   1.481       .  S
C1403      C1684   1.483       .  S
O1405      C1408   1.269       .  A
O1406      C1408   1.270       .  A
C1408      C1669   1.491       .  S
O1409      C1414   1.270       .  A
O1410      C1412   1.276       .  A
C1411      O1413   1.272       .  A
C1411      C1732   1.492       .  S
C1412      C1717   1.497       .  S
C1414      C1705   1.474       .  S
Fe1415     O1431   2.072       .  S
Fe1415     O1421   2.065       .  S
Fe1415     O1428   2.061       .  S
Fe1415     O1420   2.070       .  S
Fe1415     O1426   1.966       .  S
Fe1416     O1419   2.063       .  S
Fe1416     O1423   2.068       .  S
Fe1416     O1427   2.073       .  S
Fe1416     O1432   2.065       .  S
Fe1416     O1426   1.964       .  S
Fe1417     O1435   2.077       .  S
Fe1417     O1422   2.069       .  S
Fe1417     O1429   2.068       .  S
Fe1417     O1418   2.069       .  S
Fe1417     O1426   1.969       .  S
O1418      C1425   1.269       .  A
O1419      C1433   1.268       .  A
O1420      C1425   1.270       .  A
O1421      C1424   1.271       .  A
O1422      C1434   1.271       .  A
O1423      C1436   1.269       .  A
C1424      O1429   1.270       .  A
C1424      C1609   1.485       .  S
C1425      C1645   1.496       .  S
O1427      C1430   1.270       .  A
O1428      C1430   1.269       .  A
C1430      C1636   1.483       .  S
O1431      C1436   1.271       .  A
O1432      C1434   1.270       .  A
C1433      O1435   1.272       .  A
C1433      C1720   1.499       .  S
C1434      C1657   1.494       .  S
C1436      C1621   1.486       .  S
Fe1437     O1453   2.066       .  S
Fe1437     O1443   2.062       .  S
Fe1437     O1450   2.065       .  S
Fe1437     O1442   2.064       .  S
Fe1437     O1448   1.966       .  S
Fe1438     O1441   2.068       .  S
Fe1438     O1445   2.064       .  S
Fe1438     O1449   2.072       .  S
Fe1438     O1454   2.069       .  S
Fe1438     O1448   1.969       .  S
Fe1439     O1457   2.069       .  S
Fe1439     O1444   2.061       .  S
Fe1439     O1451   2.064       .  S
Fe1439     O1440   2.063       .  S
Fe1439     O1448   1.969       .  S
O1440      C1447   1.269       .  A
O1441      C1455   1.270       .  A
O1442      C1447   1.269       .  A
O1443      C1446   1.270       .  A
O1444      C1456   1.269       .  A
O1445      C1458   1.269       .  A
C1446      O1451   1.268       .  A
C1446      C1588   1.476       .  S
C1447      C1573   1.483       .  S
O1449      C1452   1.270       .  A
O1450      C1452   1.270       .  A
C1452      C1561   1.480       .  S
O1453      C1458   1.269       .  A
O1454      C1456   1.270       .  A
C1455      O1457   1.271       .  A
C1455      C1729   1.493       .  S
C1456      C1660   1.496       .  S
C1458      C1600   1.486       .  S
Fe1459     O1475   2.068       .  S
Fe1459     O1465   2.057       .  S
Fe1459     O1472   2.066       .  S
Fe1459     O1464   2.066       .  S
Fe1459     O1470   1.962       .  S
Fe1460     O1463   2.067       .  S
Fe1460     O1467   2.061       .  S
Fe1460     O1471   2.072       .  S
Fe1460     O1476   2.060       .  S
Fe1460     O1470   1.965       .  S
Fe1461     O1479   2.068       .  S
Fe1461     O1466   2.079       .  S
Fe1461     O1473   2.086       .  S
Fe1461     O1462   2.072       .  S
Fe1461     O1470   1.969       .  S
O1462      C1469   1.269       .  A
O1463      C1477   1.270       .  A
O1464      C1469   1.268       .  A
O1465      C1468   1.269       .  A
O1466      C1478   1.273       .  A
O1467      C1480   1.268       .  A
C1468      O1473   1.274       .  A
C1468      C1693   1.493       .  S
C1469      C1648   1.482       .  S
O1471      C1474   1.271       .  A
O1472      C1474   1.270       .  A
C1474      C1633   1.485       .  S
O1475      C1480   1.268       .  A
O1476      C1478   1.269       .  A
C1477      O1479   1.270       .  A
C1477      C1537   1.497       .  S
C1478      C1552   1.492       .  S
C1480      C1708   1.488       .  S
Fe1481     O1497   2.059       .  S
Fe1481     O1487   2.066       .  S
Fe1481     O1494   2.072       .  S
Fe1481     O1486   2.054       .  S
Fe1481     O1492   1.977       .  S
Fe1482     O1485   2.056       .  S
Fe1482     O1489   2.073       .  S
Fe1482     O1493   2.057       .  S
Fe1482     O1498   2.072       .  S
Fe1482     O1492   1.981       .  S
Fe1483     O1501   2.065       .  S
Fe1483     O1488   2.063       .  S
Fe1483     O1495   2.071       .  S
Fe1483     O1484   2.070       .  S
Fe1483     O1492   1.980       .  S
O1484      C1491   1.270       .  A
O1485      C1499   1.266       .  A
O1486      C1491   1.268       .  A
O1487      C1490   1.269       .  A
O1488      C1500   1.270       .  A
O1489      C1502   1.271       .  A
C1490      O1495   1.268       .  A
C1490      C1672   1.486       .  S
C1491      C1576   1.478       .  S
O1493      C1496   1.266       .  A
O1494      C1496   1.269       .  A
C1496      C1564   1.483       .  S
O1497      C1502   1.269       .  A
O1498      C1500   1.270       .  A
C1499      O1501   1.270       .  A
C1499      C1528   1.494       .  S
C1500      C1549   1.497       .  S
C1502      C1681   1.480       .  S
Fe1503     O1519   2.064       .  S
Fe1503     O1509   2.065       .  S
Fe1503     O1516   2.059       .  S
Fe1503     O1508   2.068       .  S
Fe1503     O1514   1.963       .  S
Fe1504     O1507   2.073       .  S
Fe1504     O1511   2.069       .  S
Fe1504     O1515   2.075       .  S
Fe1504     O1520   2.073       .  S
Fe1504     O1514   1.968       .  S
Fe1505     O1523   2.063       .  S
Fe1505     O1510   2.054       .  S
Fe1505     O1517   2.058       .  S
Fe1505     O1506   2.066       .  S
Fe1505     O1514   1.961       .  S
O1506      C1513   1.269       .  A
O1507      C1521   1.271       .  A
O1508      C1513   1.268       .  A
O1509      C1512   1.270       .  A
O1510      C1522   1.267       .  A
O1511      C1524   1.270       .  A
C1512      O1517   1.268       .  A
C1512      C1585   1.482       .  S
C1513      C1624   1.491       .  S
O1515      C1518   1.271       .  A
O1516      C1518   1.269       .  A
C1518      C1612   1.479       .  S
O1519      C1524   1.270       .  A
O1520      C1522   1.272       .  A
C1521      O1523   1.269       .  A
C1521      C1540   1.492       .  S
C1522      C1525   1.494       .  S
C1524      C1597   1.487       .  S
C1525      C1526   1.406       .  A
C1525      C1530   1.421       .  A
C1526      C1527   1.401       .  A
C1526      H1531   1.085       .  S
C1527      C1528   1.419       .  A
C1527      C1534   1.445       .  S
C1528      C1529   1.405       .  A
C1529      C1530   1.398       .  A
C1529      H1532   1.085       .  S
C1530      C1533   1.446       .  S
C1533      N1535   1.158       .  T
C1534      N1536   1.157       .  T
C1537      C1538   1.408       .  A
C1537      C1542   1.417       .  A
C1538      C1539   1.400       .  A
C1538      H1543   1.084       .  S
C1539      C1540   1.416       .  A
C1539      C1546   1.445       .  S
C1540      C1541   1.407       .  A
C1541      C1542   1.403       .  A
C1541      H1544   1.084       .  S
C1542      C1545   1.444       .  S
C1545      N1547   1.157       .  T
C1546      N1548   1.157       .  T
C1549      C1550   1.408       .  A
C1549      C1554   1.418       .  A
C1550      C1551   1.399       .  A
C1550      H1555   1.085       .  S
C1551      C1552   1.417       .  A
C1551      C1558   1.445       .  S
C1552      C1553   1.407       .  A
C1553      C1554   1.404       .  A
C1553      H1556   1.085       .  S
C1554      C1557   1.444       .  S
C1557      N1559   1.157       .  T
C1558      N1560   1.158       .  T
C1561      C1914   1.414   1_554  A
C1562      C1563   1.401       .  A
C1562      H1567   1.087       .  S
C1563      C1912   1.416   1_554  A
C1563      C1570   1.445       .  S
C1564      C1911   1.416       .  A
C1565      C1566   1.402       .  A
C1565      H1568   1.086       .  S
C1566      C1909   1.414       .  A
C1566      C1569   1.445       .  S
C1569      N1571   1.157       .  T
C1570      N1572   1.157       .  T
C1573      C1574   1.405       .  A
C1573      C1578   1.414       .  A
C1574      H1579   1.085       .  S
C1575      C1576   1.412       .  A
C1575      C1582   1.446       .  S
C1576      C1577   1.404       .  A
C1577      H1580   1.085       .  S
C1578      C1581   1.444       .  S
C1581      N1583   1.157       .  T
C1582      N1584   1.157       .  T
C1585      C1586   1.404       .  A
C1585      C1590   1.418       .  A
C1586      C1587   1.400       .  A
C1586      H1591   1.085       .  S
C1587      C1588   1.414       .  A
C1587      C1594   1.445       .  S
C1588      C1589   1.400       .  A
C1589      C1590   1.398       .  A
C1589      H1592   1.085       .  S
C1590      C1593   1.445       .  S
C1593      N1595   1.157       .  T
C1594      N1596   1.157       .  T
C1597      C1598   1.405       .  A
C1597      C1950   1.414       .  A
C1598      C1599   1.397       .  A
C1598      H1603   1.086       .  S
C1599      C1948   1.415       .  A
C1599      C1606   1.446       .  S
C1600      C1947   1.415       .  A
C1600      C1601   1.406       .  A
C1601      C1602   1.404   1_554  A
C1601      H1604   1.086       .  S
C1602      C1945   1.414       .  A
C1602      C1605   1.443       .  S
C1605      N1607   1.157       .  T
C1606      N1608   1.157       .  T
C1609      C1958   1.405       .  A
C1609      C2310   1.417   1_554  A
C1610      C1957   1.405       .  A
C1610      C1611   1.401       .  A
C1610      H1615   1.086       .  S
C1611      C2308   1.413       .  A
C1611      C1618   1.445       .  S
C1612      C2307   1.413       .  A
C1612      C1961   1.402   1_545  A
C1613      C1960   1.402   1_565  A
C1613      C1614   1.400       .  A
C1613      H1616   1.086       .  S
C1614      C2305   1.417   1_556  A
C1614      C1617   1.445       .  S
C1617      N1619   1.157       .  T
C1618      N1620   1.157       .  T
C1621      C1622   1.404       .  A
C1621      C1626   1.412       .  A
C1622      C2319   1.399       .  A
C1622      H1627   1.085       .  S
C1623      C2318   1.399   1_545  A
C1623      C1624   1.418       .  A
C1623      C1630   1.445       .  S
C1624      C1625   1.408       .  A
C1625      C2322   1.404   1_545  A
C1625      H1628   1.084       .  S
C1626      C2321   1.404       .  A
C1626      C1629   1.443       .  S
C1629      N1631   1.157       .  T
C1630      N1632   1.158       .  T
C1633      C1634   1.407       .  A
C1633      C1638   1.413   1_655  A
C1634      C1635   1.400       .  A
C1634      H1639   1.085       .  S
C1635      C1642   1.445       .  S
C1636      C1637   1.406       .  A
C1637      H1640   1.085       .  S
C1641      N1643   1.158       .  T
C1642      N1644   1.157       .  T
C1645      C1646   1.409       .  A
C1645      C1650   1.419       .  A
C1646      H1651   1.085       .  S
C1647      C1648   1.412       .  A
C1647      C1654   1.445       .  S
C1648      C1649   1.402       .  A
C1649      H1652   1.086       .  S
C1650      C1653   1.443       .  S
C1653      N1655   1.157       .  T
C1654      N1656   1.157       .  T
C1657      C1658   1.408       .  A
C1657      C1662   1.416       .  A
C1658      C1659   1.402       .  A
C1658      H1663   1.083       .  S
C1659      C1660   1.417       .  A
C1659      C1666   1.444       .  S
C1660      C1661   1.409       .  A
C1661      C1662   1.400       .  A
C1661      H1664   1.084       .  S
C1662      C1665   1.445       .  S
C1665      N1667   1.157       .  T
C1666      N1668   1.157       .  T
C1669      C1670   1.408       .  A
C1669      C1674   1.417       .  A
C1670      C2367   1.406       .  A
C1670      H1675   1.085       .  S
C1671      C2366   1.406   1_545  A
C1671      C1672   1.413       .  A
C1671      C1678   1.444       .  S
C1672      C1673   1.403       .  A
C1673      C2370   1.399   1_545  A
C1673      H1676   1.085       .  S
C1674      C2369   1.399       .  A
C1674      C1677   1.445       .  S
C1677      N1679   1.157       .  T
C1678      N1680   1.157       .  T
C1681      C2030   1.404       .  A
C1681      C2382   1.413   1_545  A
C1682      C2029   1.404   1_554  A
C1682      C1683   1.401       .  A
C1682      H1687   1.085       .  S
C1683      C2380   1.415   1_545  A
C1683      C1690   1.445       .  S
C1684      C2379   1.415       .  A
C1684      C2033   1.405   1_554  A
C1685      C2032   1.405       .  A
C1685      C1686   1.401       .  A
C1685      H1688   1.085       .  S
C1686      C2377   1.413       .  A
C1686      C1689   1.445       .  S
C1689      N1691   1.157       .  T
C1690      N1692   1.157       .  T
C1693      C1694   1.409       .  A
C1693      C1698   1.419       .  A
C1694      C2043   1.406       .  A
C1694      H1699   1.083       .  S
C1695      C2042   1.406   1_554  A
C1695      C1696   1.411       .  A
C1695      C1702   1.444       .  S
C1696      C1697   1.401   1_554  A
C1697      C2046   1.399       .  A
C1697      H1700   1.084   1_556  S
C1698      C2045   1.399       .  A
C1698      C1701   1.445       .  S
C1701      N1703   1.157       .  T
C1702      N1704   1.157       .  T
C1705      C1706   1.400       .  A
C1705      C1710   1.409       .  A
C1706      C1707   1.398       .  A
C1706      H1711   1.085       .  S
C1707      C1708   1.418       .  A
C1707      C1714   1.445       .  S
C1708      C1709   1.408       .  A
C1709      C1710   1.403       .  A
C1709      H1712   1.085       .  S
C1710      C1713   1.444       .  S
C1713      N1715   1.157       .  T
C1714      N1716   1.157       .  T
C1717      C1718   1.404       .  A
C1717      C1722   1.420       .  A
C1718      C1719   1.399       .  A
C1718      H1723   1.085       .  S
C1719      C1720   1.420       .  A
C1719      C1726   1.444       .  S
C1720      C1721   1.408       .  A
C1721      C1722   1.406       .  A
C1721      H1724   1.085       .  S
C1722      C1725   1.445       .  S
C1725      N1727   1.158       .  T
C1726      N1728   1.157       .  T
C1729      C1730   1.406       .  A
C1729      C1734   1.417       .  A
C1730      C1731   1.401       .  A
C1730      H1735   1.083       .  S
C1731      C1732   1.418       .  A
C1731      C1738   1.445       .  S
C1732      C1733   1.406       .  A
C1733      C1734   1.401       .  A
C1733      H1736   1.083       .  S
C1734      C1737   1.445       .  S
C1737      N1739   1.157       .  T
C1738      N1740   1.157       .  T
Fe1741     O1757   2.056       .  S
Fe1741     O1747   2.086       .  S
Fe1741     O1754   2.073       .  S
Fe1741     O1746   2.054       .  S
Fe1741     O1752   1.958       .  S
Fe1742     O1745   2.056       .  S
Fe1742     O1749   2.083       .  S
Fe1742     O1753   2.068       .  S
Fe1742     O1758   2.084       .  S
Fe1742     O1752   1.958       .  S
Fe1743     O1761   2.077       .  S
Fe1743     O1748   2.058       .  S
Fe1743     O1755   2.060       .  S
Fe1743     O1744   2.086       .  S
Fe1743     O1752   1.960       .  S
O1744      C1751   1.273       .  A
O1745      C1759   1.266       .  A
O1746      C1751   1.268       .  A
O1747      C1750   1.273       .  A
O1748      C1760   1.269       .  A
O1749      C1762   1.274       .  A
C1750      O1755   1.267       .  A
C1750      C2044   1.481       .  S
C1751      C2032   1.483       .  S
O1753      C1756   1.269       .  A
O1754      C1756   1.270       .  A
C1756      C2017   1.491       .  S
O1757      C1762   1.270       .  A
O1758      C1760   1.276       .  A
C1759      O1761   1.272       .  A
C1759      C2080   1.491       .  S
C1760      C2065   1.497       .  S
C1762      C2053   1.474       .  S
Fe1763     O1779   2.072       .  S
Fe1763     O1769   2.065       .  S
Fe1763     O1776   2.061       .  S
Fe1763     O1768   2.070       .  S
Fe1763     O1774   1.966       .  S
Fe1764     O1767   2.063       .  S
Fe1764     O1771   2.068       .  S
Fe1764     O1775   2.073       .  S
Fe1764     O1780   2.065       .  S
Fe1764     O1774   1.964       .  S
Fe1765     O1783   2.077       .  S
Fe1765     O1770   2.069       .  S
Fe1765     O1777   2.068       .  S
Fe1765     O1766   2.069       .  S
Fe1765     O1774   1.969       .  S
O1766      C1773   1.269       .  A
O1767      C1781   1.268       .  A
O1768      C1773   1.270       .  A
O1769      C1772   1.271       .  A
O1770      C1782   1.271       .  A
O1771      C1784   1.269       .  A
C1772      O1777   1.270       .  A
C1772      C1957   1.485       .  S
C1773      C1993   1.496       .  S
O1775      C1778   1.270       .  A
O1776      C1778   1.269       .  A
C1778      C1984   1.483       .  S
O1779      C1784   1.271       .  A
O1780      C1782   1.270       .  A
C1781      O1783   1.272       .  A
C1781      C2068   1.499       .  S
C1782      C2005   1.494       .  S
C1784      C1969   1.486       .  S
Fe1785     O1801   2.066       .  S
Fe1785     O1791   2.062       .  S
Fe1785     O1798   2.065       .  S
Fe1785     O1790   2.064       .  S
Fe1785     O1796   1.966       .  S
Fe1786     O1789   2.068       .  S
Fe1786     O1793   2.064       .  S
Fe1786     O1797   2.073       .  S
Fe1786     O1802   2.069       .  S
Fe1786     O1796   1.969       .  S
Fe1787     O1805   2.069       .  S
Fe1787     O1792   2.061       .  S
Fe1787     O1799   2.064       .  S
Fe1787     O1788   2.062       .  S
Fe1787     O1796   1.969       .  S
O1788      C1795   1.269       .  A
O1789      C1803   1.270       .  A
O1790      C1795   1.269       .  A
O1791      C1794   1.270       .  A
O1792      C1804   1.269       .  A
O1793      C1806   1.269       .  A
C1794      O1799   1.268       .  A
C1794      C1936   1.476       .  S
C1795      C1921   1.483       .  S
O1797      C1800   1.271       .  A
O1798      C1800   1.270       .  A
C1800      C1909   1.480       .  S
O1801      C1806   1.269       .  A
O1802      C1804   1.270       .  A
C1803      O1805   1.271       .  A
C1803      C2077   1.493       .  S
C1804      C2008   1.496       .  S
C1806      C1948   1.485       .  S
Fe1807     O1823   2.068       .  S
Fe1807     O1813   2.057       .  S
Fe1807     O1820   2.066       .  S
Fe1807     O1812   2.066       .  S
Fe1807     O1818   1.962       .  S
Fe1808     O1811   2.067       .  S
Fe1808     O1815   2.060       .  S
Fe1808     O1819   2.072       .  S
Fe1808     O1824   2.060       .  S
Fe1808     O1818   1.965       .  S
Fe1809     O1827   2.068       .  S
Fe1809     O1814   2.080       .  S
Fe1809     O1821   2.087       .  S
Fe1809     O1810   2.072       .  S
Fe1809     O1818   1.969       .  S
O1810      C1817   1.269       .  A
O1811      C1825   1.270       .  A
O1812      C1817   1.268       .  A
O1813      C1816   1.269       .  A
O1814      C1826   1.273       .  A
O1815      C1828   1.268       .  A
C1816      O1821   1.274       .  A
C1816      C2041   1.493       .  S
C1817      C1996   1.482       .  S
O1819      C1822   1.271       .  A
O1820      C1822   1.270       .  A
C1822      C1981   1.485       .  S
O1823      C1828   1.268       .  A
O1824      C1826   1.269       .  A
C1825      O1827   1.270       .  A
C1825      C1885   1.497       .  S
C1826      C1900   1.492       .  S
C1828      C2056   1.488       .  S
Fe1829     O1845   2.059       .  S
Fe1829     O1835   2.066       .  S
Fe1829     O1842   2.072       .  S
Fe1829     O1834   2.054       .  S
Fe1829     O1840   1.977       .  S
Fe1830     O1833   2.056       .  S
Fe1830     O1837   2.073       .  S
Fe1830     O1841   2.057       .  S
Fe1830     O1846   2.072       .  S
Fe1830     O1840   1.981       .  S
Fe1831     O1849   2.065       .  S
Fe1831     O1836   2.063       .  S
Fe1831     O1843   2.071       .  S
Fe1831     O1832   2.070       .  S
Fe1831     O1840   1.980       .  S
O1832      C1839   1.270       .  A
O1833      C1847   1.266       .  A
O1834      C1839   1.268       .  A
O1835      C1838   1.269       .  A
O1836      C1848   1.270       .  A
O1837      C1850   1.271       .  A
C1838      O1843   1.268       .  A
C1838      C2020   1.486       .  S
C1839      C1924   1.478       .  S
O1841      C1844   1.266       .  A
O1842      C1844   1.269       .  A
C1844      C1912   1.483       .  S
O1845      C1850   1.269       .  A
O1846      C1848   1.270       .  A
C1847      O1849   1.270       .  A
C1847      C1876   1.494       .  S
C1848      C1897   1.497       .  S
C1850      C2029   1.480       .  S
Fe1851     O1867   2.064       .  S
Fe1851     O1857   2.065       .  S
Fe1851     O1864   2.059       .  S
Fe1851     O1856   2.068       .  S
Fe1851     O1862   1.963       .  S
Fe1852     O1855   2.073       .  S
Fe1852     O1859   2.069       .  S
Fe1852     O1863   2.076       .  S
Fe1852     O1868   2.073       .  S
Fe1852     O1862   1.968       .  S
Fe1853     O1871   2.063       .  S
Fe1853     O1858   2.054       .  S
Fe1853     O1865   2.058       .  S
Fe1853     O1854   2.066       .  S
Fe1853     O1862   1.961       .  S
O1854      C1861   1.269       .  A
O1855      C1869   1.271       .  A
O1856      C1861   1.268       .  A
O1857      C1860   1.271       .  A
O1858      C1870   1.267       .  A
O1859      C1872   1.270       .  A
C1860      O1865   1.268       .  A
C1860      C1933   1.482       .  S
C1861      C1972   1.491       .  S
O1863      C1866   1.271       .  A
O1864      C1866   1.269       .  A
C1866      C1960   1.479       .  S
O1867      C1872   1.269       .  A
O1868      C1870   1.272       .  A
C1869      O1871   1.269       .  A
C1869      C1888   1.492       .  S
C1870      C1873   1.494       .  S
C1872      C1945   1.487       .  S
C1873      C1874   1.406       .  A
C1873      C1878   1.421       .  A
C1874      C1875   1.401       .  A
C1874      H1879   1.085       .  S
C1875      C1876   1.419       .  A
C1875      C1882   1.445       .  S
C1876      C1877   1.405       .  A
C1877      C1878   1.398       .  A
C1877      H1880   1.085       .  S
C1878      C1881   1.446       .  S
C1881      N1883   1.158       .  T
C1882      N1884   1.157       .  T
C1885      C1886   1.408       .  A
C1885      C1890   1.417       .  A
C1886      C1887   1.401       .  A
C1886      H1891   1.084       .  S
C1887      C1888   1.416       .  A
C1887      C1894   1.445       .  S
C1888      C1889   1.407       .  A
C1889      C1890   1.403       .  A
C1889      H1892   1.084       .  S
C1890      C1893   1.444       .  S
C1893      N1895   1.157       .  T
C1894      N1896   1.157       .  T
C1897      C1898   1.408       .  A
C1897      C1902   1.418       .  A
C1898      C1899   1.399       .  A
C1898      H1903   1.085       .  S
C1899      C1900   1.417       .  A
C1899      C1906   1.445       .  S
C1900      C1901   1.407       .  A
C1901      C1902   1.404       .  A
C1901      H1904   1.085       .  S
C1902      C1905   1.444       .  S
C1905      N1907   1.157       .  T
C1906      N1908   1.158       .  T
C1910      C1911   1.401       .  A
C1910      H1915   1.087       .  S
C1911      C1918   1.445       .  S
C1913      C1914   1.402       .  A
C1913      H1916   1.086       .  S
C1914      C1917   1.445       .  S
C1917      N1919   1.157       .  T
C1918      N1920   1.157       .  T
C1921      C1922   1.405       .  A
C1921      C1926   1.414       .  A
C1922      H1927   1.085       .  S
C1923      C1924   1.412       .  A
C1923      C1930   1.446       .  S
C1924      C1925   1.404       .  A
C1925      H1928   1.085       .  S
C1926      C1929   1.444       .  S
C1929      N1931   1.157       .  T
C1930      N1932   1.157       .  T
C1933      C1934   1.404       .  A
C1933      C1938   1.418       .  A
C1934      C1935   1.400       .  A
C1934      H1939   1.085       .  S
C1935      C1936   1.414       .  A
C1935      C1942   1.445       .  S
C1936      C1937   1.400       .  A
C1937      C1938   1.398       .  A
C1937      H1940   1.085       .  S
C1938      C1941   1.445       .  S
C1941      N1943   1.157       .  T
C1942      N1944   1.157       .  T
C1945      C1946   1.405       .  A
C1946      C1947   1.397   1_556  A
C1946      H1951   1.086       .  S
C1947      C1954   1.446       .  S
C1948      C1949   1.406       .  A
C1949      C1950   1.404       .  A
C1949      H1952   1.086       .  S
C1950      C1953   1.443       .  S
C1953      N1955   1.157       .  T
C1954      N1956   1.157       .  T
C1957      C2658   1.417       .  A
C1958      C1959   1.401       .  A
C1958      H1963   1.086       .  S
C1959      C2656   1.413   1_554  A
C1959      C1966   1.445       .  S
C1960      C2655   1.413   1_556  A
C1961      C1962   1.400       .  A
C1961      H1964   1.086       .  S
C1962      C2653   1.417       .  A
C1962      C1965   1.445       .  S
C1965      N1967   1.157       .  T
C1966      N1968   1.157       .  T
C1969      C1970   1.404       .  A
C1969      C1974   1.412       .  A
C1970      C2667   1.399       .  A
C1970      H1975   1.085       .  S
C1971      C2666   1.399   1_545  A
C1971      C1972   1.418       .  A
C1971      C1978   1.445       .  S
C1972      C1973   1.408       .  A
C1973      C2670   1.404   1_545  A
C1973      H1976   1.084       .  S
C1974      C2669   1.404       .  A
C1974      C1977   1.443       .  S
C1977      N1979   1.157       .  T
C1978      N1980   1.158       .  T
C1981      C1982   1.407       .  A
C1981      C1986   1.413   1_655  A
C1982      C1983   1.400       .  A
C1982      H1987   1.085       .  S
C1983      C1990   1.445       .  S
C1984      C1985   1.406       .  A
C1985      H1988   1.085       .  S
C1989      N1991   1.158       .  T
C1990      N1992   1.157       .  T
C1993      C1994   1.409       .  A
C1993      C1998   1.419       .  A
C1994      H1999   1.085       .  S
C1995      C1996   1.412       .  A
C1995      C2002   1.445       .  S
C1996      C1997   1.402       .  A
C1997      H2000   1.086       .  S
C1998      C2001   1.443       .  S
C2001      N2003   1.157       .  T
C2002      N2004   1.157       .  T
C2005      C2006   1.408       .  A
C2005      C2010   1.416       .  A
C2006      C2007   1.402       .  A
C2006      H2011   1.083       .  S
C2007      C2008   1.417       .  A
C2007      C2014   1.444       .  S
C2008      C2009   1.409       .  A
C2009      C2010   1.400       .  A
C2009      H2012   1.084       .  S
C2010      C2013   1.445       .  S
C2013      N2015   1.157       .  T
C2014      N2016   1.157       .  T
C2017      C2018   1.408       .  A
C2017      C2022   1.417       .  A
C2018      C2715   1.406       .  A
C2018      H2023   1.085       .  S
C2019      C2714   1.406   1_545  A
C2019      C2020   1.413       .  A
C2019      C2026   1.444       .  S
C2020      C2021   1.403       .  A
C2021      C2718   1.399   1_545  A
C2021      H2024   1.085       .  S
C2022      C2717   1.399       .  A
C2022      C2025   1.445       .  S
C2025      N2027   1.157       .  T
C2026      N2028   1.157       .  T
C2029      C2730   1.413   1_545  A
C2030      C2031   1.401       .  A
C2030      H2035   1.085       .  S
C2031      C2728   1.415   1_545  A
C2031      C2038   1.445       .  S
C2032      C2727   1.415       .  A
C2033      C2034   1.401       .  A
C2033      H2036   1.085       .  S
C2034      C2725   1.413       .  A
C2034      C2037   1.445       .  S
C2037      N2039   1.157       .  T
C2038      N2040   1.157       .  T
C2041      C2042   1.409       .  A
C2041      C2046   1.419       .  A
C2042      H2047   1.083       .  S
C2043      C2044   1.411       .  A
C2043      C2050   1.444       .  S
C2044      C2045   1.401       .  A
C2045      H2048   1.084       .  S
C2046      C2049   1.445       .  S
C2049      N2051   1.157       .  T
C2050      N2052   1.157       .  T
C2053      C2054   1.400       .  A
C2053      C2058   1.409       .  A
C2054      C2055   1.398       .  A
C2054      H2059   1.085       .  S
C2055      C2056   1.418       .  A
C2055      C2062   1.445       .  S
C2056      C2057   1.408       .  A
C2057      C2058   1.403       .  A
C2057      H2060   1.085       .  S
C2058      C2061   1.444       .  S
C2061      N2063   1.157       .  T
C2062      N2064   1.157       .  T
C2065      C2066   1.404       .  A
C2065      C2070   1.420       .  A
C2066      C2067   1.399       .  A
C2066      H2071   1.085       .  S
C2067      C2068   1.420       .  A
C2067      C2074   1.444       .  S
C2068      C2069   1.408       .  A
C2069      C2070   1.406       .  A
C2069      H2072   1.085       .  S
C2070      C2073   1.445       .  S
C2073      N2075   1.158       .  T
C2074      N2076   1.157       .  T
C2077      C2078   1.406       .  A
C2077      C2082   1.417       .  A
C2078      C2079   1.401       .  A
C2078      H2083   1.083       .  S
C2079      C2080   1.418       .  A
C2079      C2086   1.445       .  S
C2080      C2081   1.406       .  A
C2081      C2082   1.401       .  A
C2081      H2084   1.083       .  S
C2082      C2085   1.445       .  S
C2085      N2087   1.157       .  T
C2086      N2088   1.157       .  T
Fe2089     O2105   2.056       .  S
Fe2089     O2095   2.086       .  S
Fe2089     O2102   2.073       .  S
Fe2089     O2094   2.054       .  S
Fe2089     O2100   1.958       .  S
Fe2090     O2093   2.056       .  S
Fe2090     O2097   2.083       .  S
Fe2090     O2101   2.068       .  S
Fe2090     O2106   2.084       .  S
Fe2090     O2100   1.958       .  S
Fe2091     O2109   2.078       .  S
Fe2091     O2096   2.058       .  S
Fe2091     O2103   2.060       .  S
Fe2091     O2092   2.086       .  S
Fe2091     O2100   1.960       .  S
O2092      C2099   1.273       .  A
O2093      C2107   1.266       .  A
O2094      C2099   1.268       .  A
O2095      C2098   1.273       .  A
O2096      C2108   1.269       .  A
O2097      C2110   1.274       .  A
C2098      O2103   1.267       .  A
C2098      C2392   1.481       .  S
C2099      C2380   1.483       .  S
O2101      C2104   1.269       .  A
O2102      C2104   1.270       .  A
C2104      C2365   1.491       .  S
O2105      C2110   1.270       .  A
O2106      C2108   1.276       .  A
C2107      O2109   1.272       .  A
C2107      C2428   1.492       .  S
C2108      C2413   1.497       .  S
C2110      C2401   1.474       .  S
Fe2111     O2127   2.072       .  S
Fe2111     O2117   2.065       .  S
Fe2111     O2124   2.061       .  S
Fe2111     O2116   2.070       .  S
Fe2111     O2122   1.966       .  S
Fe2112     O2115   2.063       .  S
Fe2112     O2119   2.068       .  S
Fe2112     O2123   2.073       .  S
Fe2112     O2128   2.065       .  S
Fe2112     O2122   1.964       .  S
Fe2113     O2131   2.077       .  S
Fe2113     O2118   2.069       .  S
Fe2113     O2125   2.068       .  S
Fe2113     O2114   2.069       .  S
Fe2113     O2122   1.969       .  S
O2114      C2121   1.269       .  A
O2115      C2129   1.268       .  A
O2116      C2121   1.270       .  A
O2117      C2120   1.271       .  A
O2118      C2130   1.271       .  A
O2119      C2132   1.269       .  A
C2120      O2125   1.270       .  A
C2120      C2305   1.485       .  S
C2121      C2341   1.496       .  S
O2123      C2126   1.270       .  A
O2124      C2126   1.269       .  A
C2126      C2332   1.483       .  S
O2127      C2132   1.271       .  A
O2128      C2130   1.270       .  A
C2129      O2131   1.272       .  A
C2129      C2416   1.499       .  S
C2130      C2353   1.494       .  S
C2132      C2317   1.486       .  S
Fe2133     O2149   2.066       .  S
Fe2133     O2139   2.062       .  S
Fe2133     O2146   2.065       .  S
Fe2133     O2138   2.064       .  S
Fe2133     O2144   1.966       .  S
Fe2134     O2137   2.068       .  S
Fe2134     O2141   2.064       .  S
Fe2134     O2145   2.072       .  S
Fe2134     O2150   2.069       .  S
Fe2134     O2144   1.969       .  S
Fe2135     O2153   2.069       .  S
Fe2135     O2140   2.061       .  S
Fe2135     O2147   2.064       .  S
Fe2135     O2136   2.063       .  S
Fe2135     O2144   1.969       .  S
O2136      C2143   1.269       .  A
O2137      C2151   1.270       .  A
O2138      C2143   1.269       .  A
O2139      C2142   1.270       .  A
O2140      C2152   1.269       .  A
O2141      C2154   1.269       .  A
C2142      O2147   1.268       .  A
C2142      C2284   1.476       .  S
C2143      C2269   1.483       .  S
O2145      C2148   1.270       .  A
O2146      C2148   1.270       .  A
C2148      C2257   1.480       .  S
O2149      C2154   1.269       .  A
O2150      C2152   1.270       .  A
C2151      O2153   1.271       .  A
C2151      C2425   1.493       .  S
C2152      C2356   1.496       .  S
C2154      C2296   1.486       .  S
Fe2155     O2171   2.068       .  S
Fe2155     O2161   2.057       .  S
Fe2155     O2168   2.066       .  S
Fe2155     O2160   2.066       .  S
Fe2155     O2166   1.962       .  S
Fe2156     O2159   2.067       .  S
Fe2156     O2163   2.061       .  S
Fe2156     O2167   2.072       .  S
Fe2156     O2172   2.060       .  S
Fe2156     O2166   1.965       .  S
Fe2157     O2175   2.068       .  S
Fe2157     O2162   2.079       .  S
Fe2157     O2169   2.086       .  S
Fe2157     O2158   2.072       .  S
Fe2157     O2166   1.969       .  S
O2158      C2165   1.269       .  A
O2159      C2173   1.270       .  A
O2160      C2165   1.268       .  A
O2161      C2164   1.269       .  A
O2162      C2174   1.273       .  A
O2163      C2176   1.268       .  A
C2164      O2169   1.274       .  A
C2164      C2389   1.493       .  S
C2165      C2344   1.482       .  S
O2167      C2170   1.271       .  A
O2168      C2170   1.270       .  A
C2170      C2329   1.485       .  S
O2171      C2176   1.268       .  A
O2172      C2174   1.269       .  A
C2173      O2175   1.270       .  A
C2173      C2233   1.497       .  S
C2174      C2248   1.492       .  S
C2176      C2404   1.488       .  S
Fe2177     O2193   2.059       .  S
Fe2177     O2183   2.066       .  S
Fe2177     O2190   2.072       .  S
Fe2177     O2182   2.054       .  S
Fe2177     O2188   1.977       .  S
Fe2178     O2181   2.056       .  S
Fe2178     O2185   2.073       .  S
Fe2178     O2189   2.057       .  S
Fe2178     O2194   2.072       .  S
Fe2178     O2188   1.981       .  S
Fe2179     O2197   2.065       .  S
Fe2179     O2184   2.063       .  S
Fe2179     O2191   2.071       .  S
Fe2179     O2180   2.070       .  S
Fe2179     O2188   1.980       .  S
O2180      C2187   1.270       .  A
O2181      C2195   1.266       .  A
O2182      C2187   1.268       .  A
O2183      C2186   1.269       .  A
O2184      C2196   1.270       .  A
O2185      C2198   1.271       .  A
C2186      O2191   1.268       .  A
C2186      C2368   1.486       .  S
C2187      C2272   1.478       .  S
O2189      C2192   1.266       .  A
O2190      C2192   1.269       .  A
C2192      C2260   1.483       .  S
O2193      C2198   1.269       .  A
O2194      C2196   1.270       .  A
C2195      O2197   1.270       .  A
C2195      C2224   1.494       .  S
C2196      C2245   1.497       .  S
C2198      C2377   1.480       .  S
Fe2199     O2215   2.064       .  S
Fe2199     O2205   2.065       .  S
Fe2199     O2212   2.059       .  S
Fe2199     O2204   2.068       .  S
Fe2199     O2210   1.963       .  S
Fe2200     O2203   2.073       .  S
Fe2200     O2207   2.069       .  S
Fe2200     O2211   2.075       .  S
Fe2200     O2216   2.073       .  S
Fe2200     O2210   1.968       .  S
Fe2201     O2219   2.063       .  S
Fe2201     O2206   2.054       .  S
Fe2201     O2213   2.058       .  S
Fe2201     O2202   2.066       .  S
Fe2201     O2210   1.961       .  S
O2202      C2209   1.269       .  A
O2203      C2217   1.271       .  A
O2204      C2209   1.268       .  A
O2205      C2208   1.270       .  A
O2206      C2218   1.267       .  A
O2207      C2220   1.270       .  A
C2208      O2213   1.268       .  A
C2208      C2281   1.482       .  S
C2209      C2320   1.491       .  S
O2211      C2214   1.271       .  A
O2212      C2214   1.269       .  A
C2214      C2308   1.479       .  S
O2215      C2220   1.270       .  A
O2216      C2218   1.272       .  A
C2217      O2219   1.269       .  A
C2217      C2236   1.492       .  S
C2218      C2221   1.494       .  S
C2220      C2293   1.487       .  S
C2221      C2222   1.406       .  A
C2221      C2226   1.421       .  A
C2222      C2223   1.401       .  A
C2222      H2227   1.085       .  S
C2223      C2224   1.419       .  A
C2223      C2230   1.445       .  S
C2224      C2225   1.405       .  A
C2225      C2226   1.398       .  A
C2225      H2228   1.085       .  S
C2226      C2229   1.446       .  S
C2229      N2231   1.158       .  T
C2230      N2232   1.157       .  T
C2233      C2234   1.408       .  A
C2233      C2238   1.417       .  A
C2234      C2235   1.401       .  A
C2234      H2239   1.084       .  S
C2235      C2236   1.416       .  A
C2235      C2242   1.445       .  S
C2236      C2237   1.407       .  A
C2237      C2238   1.403       .  A
C2237      H2240   1.084       .  S
C2238      C2241   1.444       .  S
C2241      N2243   1.157       .  T
C2242      N2244   1.157       .  T
C2245      C2246   1.408       .  A
C2245      C2250   1.418       .  A
C2246      C2247   1.399       .  A
C2246      H2251   1.085       .  S
C2247      C2248   1.417       .  A
C2247      C2254   1.445       .  S
C2248      C2249   1.407       .  A
C2249      C2250   1.404       .  A
C2249      H2252   1.085       .  S
C2250      C2253   1.444       .  S
C2253      N2255   1.157       .  T
C2254      N2256   1.158       .  T
C2257      C2610   1.414   1_554  A
C2258      C2259   1.401       .  A
C2258      H2263   1.087       .  S
C2259      C2608   1.416   1_554  A
C2259      C2266   1.445       .  S
C2260      C2607   1.416       .  A
C2261      C2262   1.402       .  A
C2261      H2264   1.086       .  S
C2262      C2605   1.414       .  A
C2262      C2265   1.445       .  S
C2265      N2267   1.157       .  T
C2266      N2268   1.157       .  T
C2269      C2270   1.405       .  A
C2269      C2274   1.414       .  A
C2270      H2275   1.085       .  S
C2271      C2272   1.412       .  A
C2271      C2278   1.446       .  S
C2272      C2273   1.404       .  A
C2273      H2276   1.085       .  S
C2274      C2277   1.444       .  S
C2277      N2279   1.157       .  T
C2278      N2280   1.157       .  T
C2281      C2282   1.404       .  A
C2281      C2286   1.418       .  A
C2282      C2283   1.400       .  A
C2282      H2287   1.085       .  S
C2283      C2284   1.414       .  A
C2283      C2290   1.445       .  S
C2284      C2285   1.400       .  A
C2285      C2286   1.398       .  A
C2285      H2288   1.085       .  S
C2286      C2289   1.445       .  S
C2289      N2291   1.157       .  T
C2290      N2292   1.157       .  T
C2293      C2294   1.405       .  A
C2293      C2646   1.414       .  A
C2294      C2295   1.397       .  A
C2294      H2299   1.086       .  S
C2295      C2644   1.415       .  A
C2295      C2302   1.446       .  S
C2296      C2643   1.415       .  A
C2296      C2297   1.406       .  A
C2297      C2298   1.404   1_554  A
C2297      H2300   1.086       .  S
C2298      C2641   1.414       .  A
C2298      C2301   1.443       .  S
C2301      N2303   1.157       .  T
C2302      N2304   1.157       .  T
C2305      C2654   1.405   1_565  A
C2306      C2653   1.405   1_545  A
C2306      C2307   1.401       .  A
C2306      H2311   1.086       .  S
C2307      C2314   1.445       .  S
C2308      C2657   1.402       .  A
C2309      C2656   1.402       .  A
C2309      C2310   1.400       .  A
C2309      H2312   1.086       .  S
C2310      C2313   1.445       .  S
C2313      N2315   1.157       .  T
C2314      N2316   1.157       .  T
C2317      C2318   1.404       .  A
C2317      C2322   1.412       .  A
C2318      H2323   1.085       .  S
C2319      C2320   1.418       .  A
C2319      C2326   1.445       .  S
C2320      C2321   1.408       .  A
C2321      H2324   1.084       .  S
C2322      C2325   1.443       .  S
C2325      N2327   1.157       .  T
C2326      N2328   1.158       .  T
C2329      C2330   1.407       .  A
C2329      C2334   1.413   1_655  A
C2330      C2331   1.400       .  A
C2330      H2335   1.085       .  S
C2331      C2338   1.445       .  S
C2332      C2333   1.406       .  A
C2333      H2336   1.085       .  S
C2337      N2339   1.158       .  T
C2338      N2340   1.157       .  T
C2341      C2342   1.409       .  A
C2341      C2346   1.419       .  A
C2342      H2347   1.085       .  S
C2343      C2344   1.412       .  A
C2343      C2350   1.445       .  S
C2344      C2345   1.402       .  A
C2345      H2348   1.086       .  S
C2346      C2349   1.443       .  S
C2349      N2351   1.157       .  T
C2350      N2352   1.157       .  T
C2353      C2354   1.408       .  A
C2353      C2358   1.416       .  A
C2354      C2355   1.402       .  A
C2354      H2359   1.083       .  S
C2355      C2356   1.417       .  A
C2355      C2362   1.444       .  S
C2356      C2357   1.409       .  A
C2357      C2358   1.400       .  A
C2357      H2360   1.084       .  S
C2358      C2361   1.445       .  S
C2361      N2363   1.157       .  T
C2362      N2364   1.157       .  T
C2365      C2366   1.408       .  A
C2365      C2370   1.417       .  A
C2366      H2371   1.085       .  S
C2367      C2368   1.413       .  A
C2367      C2374   1.444       .  S
C2368      C2369   1.403       .  A
C2369      H2372   1.085       .  S
C2370      C2373   1.445       .  S
C2373      N2375   1.157       .  T
C2374      N2376   1.157       .  T
C2377      C2726   1.404       .  A
C2378      C2725   1.404   1_554  A
C2378      C2379   1.401       .  A
C2378      H2383   1.085       .  S
C2379      C2386   1.445       .  S
C2380      C2729   1.405   1_554  A
C2381      C2728   1.405       .  A
C2381      C2382   1.401       .  A
C2381      H2384   1.085       .  S
C2382      C2385   1.445       .  S
C2385      N2387   1.157       .  T
C2386      N2388   1.157       .  T
C2389      C2390   1.409       .  A
C2389      C2394   1.419       .  A
C2390      C2739   1.406       .  A
C2390      H2395   1.083       .  S
C2391      C2738   1.406   1_554  A
C2391      C2392   1.411       .  A
C2391      C2398   1.444       .  S
C2392      C2393   1.401   1_554  A
C2393      C2742   1.399       .  A
C2393      H2396   1.084   1_556  S
C2394      C2741   1.399       .  A
C2394      C2397   1.445       .  S
C2397      N2399   1.157       .  T
C2398      N2400   1.157       .  T
C2401      C2402   1.400       .  A
C2401      C2406   1.409       .  A
C2402      C2403   1.398       .  A
C2402      H2407   1.085       .  S
C2403      C2404   1.418       .  A
C2403      C2410   1.445       .  S
C2404      C2405   1.408       .  A
C2405      C2406   1.403       .  A
C2405      H2408   1.085       .  S
C2406      C2409   1.444       .  S
C2409      N2411   1.157       .  T
C2410      N2412   1.157       .  T
C2413      C2414   1.404       .  A
C2413      C2418   1.420       .  A
C2414      C2415   1.399       .  A
C2414      H2419   1.085       .  S
C2415      C2416   1.420       .  A
C2415      C2422   1.444       .  S
C2416      C2417   1.408       .  A
C2417      C2418   1.406       .  A
C2417      H2420   1.085       .  S
C2418      C2421   1.445       .  S
C2421      N2423   1.158       .  T
C2422      N2424   1.157       .  T
C2425      C2426   1.406       .  A
C2425      C2430   1.417       .  A
C2426      C2427   1.401       .  A
C2426      H2431   1.083       .  S
C2427      C2428   1.418       .  A
C2427      C2434   1.445       .  S
C2428      C2429   1.406       .  A
C2429      C2430   1.401       .  A
C2429      H2432   1.083       .  S
C2430      C2433   1.445       .  S
C2433      N2435   1.157       .  T
C2434      N2436   1.157       .  T
Fe2437     O2453   2.056       .  S
Fe2437     O2443   2.086       .  S
Fe2437     O2450   2.073       .  S
Fe2437     O2442   2.054       .  S
Fe2437     O2448   1.958       .  S
Fe2438     O2441   2.056       .  S
Fe2438     O2445   2.083       .  S
Fe2438     O2449   2.068       .  S
Fe2438     O2454   2.084       .  S
Fe2438     O2448   1.958       .  S
Fe2439     O2457   2.077       .  S
Fe2439     O2444   2.058       .  S
Fe2439     O2451   2.060       .  S
Fe2439     O2440   2.086       .  S
Fe2439     O2448   1.960       .  S
O2440      C2447   1.273       .  A
O2441      C2455   1.266       .  A
O2442      C2447   1.268       .  A
O2443      C2446   1.273       .  A
O2444      C2456   1.269       .  A
O2445      C2458   1.274       .  A
C2446      O2451   1.267       .  A
C2446      C2740   1.481       .  S
C2447      C2728   1.483       .  S
O2449      C2452   1.269       .  A
O2450      C2452   1.270       .  A
C2452      C2713   1.491       .  S
O2453      C2458   1.270       .  A
O2454      C2456   1.276       .  A
C2455      O2457   1.272       .  A
C2455      C2776   1.492       .  S
C2456      C2761   1.497       .  S
C2458      C2749   1.474       .  S
Fe2459     O2475   2.072       .  S
Fe2459     O2465   2.065       .  S
Fe2459     O2472   2.061       .  S
Fe2459     O2464   2.070       .  S
Fe2459     O2470   1.966       .  S
Fe2460     O2463   2.063       .  S
Fe2460     O2467   2.068       .  S
Fe2460     O2471   2.073       .  S
Fe2460     O2476   2.065       .  S
Fe2460     O2470   1.964       .  S
Fe2461     O2479   2.077       .  S
Fe2461     O2466   2.069       .  S
Fe2461     O2473   2.068       .  S
Fe2461     O2462   2.069       .  S
Fe2461     O2470   1.969       .  S
O2462      C2469   1.269       .  A
O2463      C2477   1.268       .  A
O2464      C2469   1.270       .  A
O2465      C2468   1.271       .  A
O2466      C2478   1.271       .  A
O2467      C2480   1.269       .  A
C2468      O2473   1.270       .  A
C2468      C2653   1.485       .  S
C2469      C2689   1.496       .  S
O2471      C2474   1.270       .  A
O2472      C2474   1.269       .  A
C2474      C2680   1.483       .  S
O2475      C2480   1.271       .  A
O2476      C2478   1.270       .  A
C2477      O2479   1.272       .  A
C2477      C2764   1.499       .  S
C2478      C2701   1.494       .  S
C2480      C2665   1.486       .  S
Fe2481     O2497   2.066       .  S
Fe2481     O2487   2.062       .  S
Fe2481     O2494   2.065       .  S
Fe2481     O2486   2.064       .  S
Fe2481     O2492   1.966       .  S
Fe2482     O2485   2.068       .  S
Fe2482     O2489   2.064       .  S
Fe2482     O2493   2.073       .  S
Fe2482     O2498   2.069       .  S
Fe2482     O2492   1.969       .  S
Fe2483     O2501   2.069       .  S
Fe2483     O2488   2.061       .  S
Fe2483     O2495   2.064       .  S
Fe2483     O2484   2.062       .  S
Fe2483     O2492   1.969       .  S
O2484      C2491   1.269       .  A
O2485      C2499   1.270       .  A
O2486      C2491   1.269       .  A
O2487      C2490   1.270       .  A
O2488      C2500   1.269       .  A
O2489      C2502   1.269       .  A
C2490      O2495   1.268       .  A
C2490      C2632   1.476       .  S
C2491      C2617   1.483       .  S
O2493      C2496   1.271       .  A
O2494      C2496   1.270       .  A
C2496      C2605   1.480       .  S
O2497      C2502   1.269       .  A
O2498      C2500   1.270       .  A
C2499      O2501   1.271       .  A
C2499      C2773   1.493       .  S
C2500      C2704   1.496       .  S
C2502      C2644   1.485       .  S
Fe2503     O2519   2.068       .  S
Fe2503     O2509   2.057       .  S
Fe2503     O2516   2.066       .  S
Fe2503     O2508   2.066       .  S
Fe2503     O2514   1.962       .  S
Fe2504     O2507   2.067       .  S
Fe2504     O2511   2.060       .  S
Fe2504     O2515   2.072       .  S
Fe2504     O2520   2.060       .  S
Fe2504     O2514   1.965       .  S
Fe2505     O2523   2.068       .  S
Fe2505     O2510   2.080       .  S
Fe2505     O2517   2.087       .  S
Fe2505     O2506   2.072       .  S
Fe2505     O2514   1.969       .  S
O2506      C2513   1.269       .  A
O2507      C2521   1.270       .  A
O2508      C2513   1.268       .  A
O2509      C2512   1.269       .  A
O2510      C2522   1.273       .  A
O2511      C2524   1.268       .  A
C2512      O2517   1.274       .  A
C2512      C2737   1.493       .  S
C2513      C2692   1.482       .  S
O2515      C2518   1.271       .  A
O2516      C2518   1.270       .  A
C2518      C2677   1.485       .  S
O2519      C2524   1.268       .  A
O2520      C2522   1.269       .  A
C2521      O2523   1.270       .  A
C2521      C2581   1.497       .  S
C2522      C2596   1.492       .  S
C2524      C2752   1.488       .  S
Fe2525     O2541   2.059       .  S
Fe2525     O2531   2.066       .  S
Fe2525     O2538   2.072       .  S
Fe2525     O2530   2.054       .  S
Fe2525     O2536   1.977       .  S
Fe2526     O2529   2.056       .  S
Fe2526     O2533   2.073       .  S
Fe2526     O2537   2.057       .  S
Fe2526     O2542   2.072       .  S
Fe2526     O2536   1.981       .  S
Fe2527     O2545   2.065       .  S
Fe2527     O2532   2.063       .  S
Fe2527     O2539   2.071       .  S
Fe2527     O2528   2.070       .  S
Fe2527     O2536   1.980       .  S
O2528      C2535   1.270       .  A
O2529      C2543   1.266       .  A
O2530      C2535   1.268       .  A
O2531      C2534   1.269       .  A
O2532      C2544   1.270       .  A
O2533      C2546   1.271       .  A
C2534      O2539   1.268       .  A
C2534      C2716   1.486       .  S
C2535      C2620   1.478       .  S
O2537      C2540   1.266       .  A
O2538      C2540   1.269       .  A
C2540      C2608   1.483       .  S
O2541      C2546   1.269       .  A
O2542      C2544   1.270       .  A
C2543      O2545   1.270       .  A
C2543      C2572   1.494       .  S
C2544      C2593   1.497       .  S
C2546      C2725   1.480       .  S
Fe2547     O2563   2.064       .  S
Fe2547     O2553   2.065       .  S
Fe2547     O2560   2.059       .  S
Fe2547     O2552   2.068       .  S
Fe2547     O2558   1.963       .  S
Fe2548     O2551   2.073       .  S
Fe2548     O2555   2.069       .  S
Fe2548     O2559   2.076       .  S
Fe2548     O2564   2.073       .  S
Fe2548     O2558   1.968       .  S
Fe2549     O2567   2.063       .  S
Fe2549     O2554   2.054       .  S
Fe2549     O2561   2.058       .  S
Fe2549     O2550   2.066       .  S
Fe2549     O2558   1.961       .  S
O2550      C2557   1.269       .  A
O2551      C2565   1.271       .  A
O2552      C2557   1.268       .  A
O2553      C2556   1.271       .  A
O2554      C2566   1.267       .  A
O2555      C2568   1.270       .  A
C2556      O2561   1.268       .  A
C2556      C2629   1.482       .  S
C2557      C2668   1.491       .  S
O2559      C2562   1.271       .  A
O2560      C2562   1.269       .  A
C2562      C2656   1.479       .  S
O2563      C2568   1.269       .  A
O2564      C2566   1.272       .  A
C2565      O2567   1.269       .  A
C2565      C2584   1.492       .  S
C2566      C2569   1.494       .  S
C2568      C2641   1.487       .  S
C2569      C2570   1.406       .  A
C2569      C2574   1.421       .  A
C2570      C2571   1.401       .  A
C2570      H2575   1.085       .  S
C2571      C2572   1.419       .  A
C2571      C2578   1.445       .  S
C2572      C2573   1.405       .  A
C2573      C2574   1.398       .  A
C2573      H2576   1.085       .  S
C2574      C2577   1.446       .  S
C2577      N2579   1.158       .  T
C2578      N2580   1.157       .  T
C2581      C2582   1.408       .  A
C2581      C2586   1.417       .  A
C2582      C2583   1.401       .  A
C2582      H2587   1.084       .  S
C2583      C2584   1.416       .  A
C2583      C2590   1.445       .  S
C2584      C2585   1.407       .  A
C2585      C2586   1.403       .  A
C2585      H2588   1.084       .  S
C2586      C2589   1.444       .  S
C2589      N2591   1.157       .  T
C2590      N2592   1.157       .  T
C2593      C2594   1.408       .  A
C2593      C2598   1.418       .  A
C2594      C2595   1.399       .  A
C2594      H2599   1.085       .  S
C2595      C2596   1.417       .  A
C2595      C2602   1.445       .  S
C2596      C2597   1.407       .  A
C2597      C2598   1.404       .  A
C2597      H2600   1.085       .  S
C2598      C2601   1.444       .  S
C2601      N2603   1.157       .  T
C2602      N2604   1.158       .  T
C2606      C2607   1.401       .  A
C2606      H2611   1.087       .  S
C2607      C2614   1.445       .  S
C2609      C2610   1.402       .  A
C2609      H2612   1.086       .  S
C2610      C2613   1.445       .  S
C2613      N2615   1.157       .  T
C2614      N2616   1.157       .  T
C2617      C2618   1.405       .  A
C2617      C2622   1.414       .  A
C2618      H2623   1.085       .  S
C2619      C2620   1.412       .  A
C2619      C2626   1.446       .  S
C2620      C2621   1.404       .  A
C2621      H2624   1.085       .  S
C2622      C2625   1.444       .  S
C2625      N2627   1.157       .  T
C2626      N2628   1.157       .  T
C2629      C2630   1.404       .  A
C2629      C2634   1.418       .  A
C2630      C2631   1.400       .  A
C2630      H2635   1.085       .  S
C2631      C2632   1.414       .  A
C2631      C2638   1.445       .  S
C2632      C2633   1.400       .  A
C2633      C2634   1.398       .  A
C2633      H2636   1.085       .  S
C2634      C2637   1.445       .  S
C2637      N2639   1.157       .  T
C2638      N2640   1.157       .  T
C2641      C2642   1.405       .  A
C2642      C2643   1.397   1_556  A
C2642      H2647   1.086       .  S
C2643      C2650   1.446       .  S
C2644      C2645   1.406       .  A
C2645      C2646   1.404       .  A
C2645      H2648   1.086       .  S
C2646      C2649   1.443       .  S
C2649      N2651   1.157       .  T
C2650      N2652   1.157       .  T
C2654      C2655   1.401       .  A
C2654      H2659   1.086       .  S
C2655      C2662   1.445       .  S
C2657      C2658   1.400       .  A
C2657      H2660   1.086       .  S
C2658      C2661   1.445       .  S
C2661      N2663   1.157       .  T
C2662      N2664   1.157       .  T
C2665      C2666   1.404       .  A
C2665      C2670   1.412       .  A
C2666      H2671   1.085       .  S
C2667      C2668   1.418       .  A
C2667      C2674   1.445       .  S
C2668      C2669   1.408       .  A
C2669      H2672   1.084       .  S
C2670      C2673   1.443       .  S
C2673      N2675   1.157       .  T
C2674      N2676   1.158       .  T
C2677      C2678   1.407       .  A
C2677      C2682   1.413   1_655  A
C2678      C2679   1.400       .  A
C2678      H2683   1.085       .  S
C2679      C2686   1.445       .  S
C2680      C2681   1.406       .  A
C2681      H2684   1.085       .  S
C2685      N2687   1.158       .  T
C2686      N2688   1.157       .  T
C2689      C2690   1.409       .  A
C2689      C2694   1.419       .  A
C2690      H2695   1.085       .  S
C2691      C2692   1.412       .  A
C2691      C2698   1.445       .  S
C2692      C2693   1.402       .  A
C2693      H2696   1.086       .  S
C2694      C2697   1.443       .  S
C2697      N2699   1.157       .  T
C2698      N2700   1.157       .  T
C2701      C2702   1.408       .  A
C2701      C2706   1.416       .  A
C2702      C2703   1.402       .  A
C2702      H2707   1.083       .  S
C2703      C2704   1.417       .  A
C2703      C2710   1.444       .  S
C2704      C2705   1.409       .  A
C2705      C2706   1.400       .  A
C2705      H2708   1.084       .  S
C2706      C2709   1.445       .  S
C2709      N2711   1.157       .  T
C2710      N2712   1.157       .  T
C2713      C2714   1.408       .  A
C2713      C2718   1.417       .  A
C2714      H2719   1.085       .  S
C2715      C2716   1.413       .  A
C2715      C2722   1.444       .  S
C2716      C2717   1.403       .  A
C2717      H2720   1.085       .  S
C2718      C2721   1.445       .  S
C2721      N2723   1.157       .  T
C2722      N2724   1.157       .  T
C2726      C2727   1.401       .  A
C2726      H2731   1.085       .  S
C2727      C2734   1.445       .  S
C2729      C2730   1.401       .  A
C2729      H2732   1.085       .  S
C2730      C2733   1.445       .  S
C2733      N2735   1.157       .  T
C2734      N2736   1.157       .  T
C2737      C2738   1.409       .  A
C2737      C2742   1.419       .  A
C2738      H2743   1.083       .  S
C2739      C2740   1.411       .  A
C2739      C2746   1.444       .  S
C2740      C2741   1.401       .  A
C2741      H2744   1.084       .  S
C2742      C2745   1.445       .  S
C2745      N2747   1.157       .  T
C2746      N2748   1.157       .  T
C2749      C2750   1.400       .  A
C2749      C2754   1.409       .  A
C2750      C2751   1.398       .  A
C2750      H2755   1.085       .  S
C2751      C2752   1.418       .  A
C2751      C2758   1.445       .  S
C2752      C2753   1.408       .  A
C2753      C2754   1.403       .  A
C2753      H2756   1.085       .  S
C2754      C2757   1.444       .  S
C2757      N2759   1.157       .  T
C2758      N2760   1.157       .  T
C2761      C2762   1.404       .  A
C2761      C2766   1.420       .  A
C2762      C2763   1.399       .  A
C2762      H2767   1.085       .  S
C2763      C2764   1.420       .  A
C2763      C2770   1.444       .  S
C2764      C2765   1.408       .  A
C2765      C2766   1.406       .  A
C2765      H2768   1.085       .  S
C2766      C2769   1.445       .  S
C2769      N2771   1.158       .  T
C2770      N2772   1.157       .  T
C2773      C2774   1.406       .  A
C2773      C2778   1.417       .  A
C2774      C2775   1.401       .  A
C2774      H2779   1.083       .  S
C2775      C2776   1.418       .  A
C2775      C2782   1.445       .  S
C2776      C2777   1.406       .  A
C2777      C2778   1.401       .  A
C2777      H2780   1.083       .  S
C2778      C2781   1.445       .  S
C2781      N2783   1.157       .  T
C2782      N2784   1.157       .  T
