geometry optimzed in LAMMPS
_audit_creation_date              2020-12-01 
_audit_creation_method            'lammps2cif' 
_symmetry_space_group_name_H-M    'P1' 
_symmetry_Int_Tables_number       1 
_symmetry_cell_setting            triclinic 
loop_ 
_symmetry_equiv_pos_as_xyz 
  x,y,z 
_cell_length_a                    32.43692456 
_cell_length_b                    32.77293841329448 
_cell_length_c                    47.41669002897065 
_cell_angle_alpha                 70.58446873749878 
_cell_angle_beta                  94.47594243150289 
_cell_angle_gamma                 119.95673537176457 
loop_ 
_atom_site_label 
_atom_site_type_symbol 
_atom_site_fract_x 
_atom_site_fract_y 
_atom_site_fract_z 
_atom_site_charge 
Zr1        Zr  0.95921242  0.05287747  0.36630340     2.17500
O2          O  0.89650390  0.00986562  0.40800918    -0.51100
O3          O  0.97537678  0.13713076  0.35736694    -0.74300
O4          O  0.99349626  0.06457734  0.41274128    -0.81000
O5          O  0.87086950  0.03174569  0.30743281    -0.82800
O6          O  0.05907610  0.05550486  0.41569965    -0.78400
O7          O  0.88168736  0.04288363  0.35298717    -0.90100
O8          O  0.03669321  0.19004260  0.31987293    -0.76000
O9          O  0.04393767  0.10006370  0.35521071    -0.85500
O10         O  0.97483934  0.09483243  0.31321237    -0.85200
O11         O  0.98502334  0.99247790  0.38357667    -0.72000
O12         O  0.92177763  0.98842835  0.34411183    -0.84100
Zr13       Zr  0.05056359  0.01923956  0.29558976     2.26400
Zr14       Zr  0.07000975  0.04019611  0.37103161     2.06300
Zr15       Zr  0.93916785  0.03098221  0.29097330     2.10000
Zr16       Zr  0.05942092  0.14170773  0.30236369     1.78800
O17         O  0.86806194  0.95895354  0.28439520    -0.92900
O18         O  0.13278606  0.20018166  0.31741041    -0.40700
O19         O  0.02415112  0.07913780  0.27887345    -0.77300
O20         O  0.08820236  0.08383641  0.31782866    -0.96000
O21         O  0.03441639  0.97678419  0.34849171    -0.89300
O22         O  0.96573758  0.97167591  0.30668588    -0.92200
C23         C  0.00529797  0.18073979  0.33943866     1.01600
C24         C  0.85764920  0.03607006  0.33052985     1.14500
C25         C  0.02938892  0.06361187  0.42583191     1.05300
O26         O  0.14615039  0.10465660  0.37953167    -0.94300
O27         O  0.13586374  0.03353699  0.35683318    -0.90100
O28         O  0.12328462  0.01858726  0.31241667    -0.83200
C29         C  0.14734320  0.02529087  0.33490662     1.11900
O30         O  0.88627312  0.88158505  0.40116541    -0.96300
Zr31       Zr  0.95003415  0.93029104  0.35971498     1.88900
O32         O  0.02970796  0.93410956  0.30232444    -0.72900
O33         O  0.07066926  0.97291784  0.41293415    -0.52200
O34         O  0.97214437  0.88382837  0.40374516    -0.96900
O35         O  0.87477298  0.87120233  0.34650466    -0.54100
O36         O  0.97125965  0.88172871  0.34162048    -0.73500
C37         C  0.00065293  0.89070000  0.32087966     0.98900
O38         O  0.11493046  0.06341049  0.25460497    -0.62300
O39         O  0.92799321  0.09128225  0.24932924    -0.57100
O40         O  0.02205689  0.01804937  0.24648015    -0.93800
O41         O  0.95842660  0.03047380  0.24287372    -0.92200
O42         O  0.04261588  0.19108340  0.25695528    -0.92500
O43         O  0.12596634  0.19090869  0.26273176    -0.91300
C44         C  0.98937883  0.02464404  0.23213042     1.17700
H45         H  0.96111250  0.11623497  0.30659035     0.33700
H46         H  0.12240036  0.10230846  0.31243256     0.44500
H47         H  0.95140661  0.94804225  0.29605849     0.38000
H48         H  0.97718874  0.97617390  0.40508760     0.34500
H49         H  0.13664443  0.23357682  0.30633516     0.26300
H50         H  0.09984996  0.98997367  0.42237351     0.32300
H51         H  0.95860247  0.85010579  0.40229418     0.38200
H52         H  0.06003929  0.22562143  0.25753340     0.32600
H53         H  0.89482782  0.07202242  0.24471518     0.31500
H54         H  0.85286421  0.97348930  0.26841787     0.33200
H55         H  0.88317803  0.86894089  0.32766681     0.32100
H56         H  0.12343393  0.16678777  0.25354233     0.36100
H57         H  0.10738500  0.08689787  0.23901599     0.28900
H58         H  0.90169636  0.03571492  0.41648000     0.33100
H59         H  0.87670865  0.84616177  0.40530238     0.36000
H60         H  0.92708909  0.11442162  0.25805269     0.28600
H61         H  0.14368930  0.08578251  0.26225201     0.41400
H62         H  0.15786890  0.13257426  0.36006603     0.31500
H63         H  0.12462402  0.19406289  0.33866546     0.39100
H64         H  0.85662318  0.88909759  0.34034207     0.31000
H65         H  0.04388529  0.96123345  0.42776239     0.31000
H66         H  0.90475037  0.98698414  0.42358438     0.31300
Zr67       Zr  0.95883260  0.55806156  0.36509583     2.17500
O68         O  0.89907651  0.52575471  0.40686348    -0.51100
O69         O  0.97575084  0.64394524  0.35012243    -0.74300
O70         O  0.99494624  0.57520770  0.41014581    -0.81000
O71         O  0.86287124  0.51776287  0.31225749    -0.82800
O72         O  0.06325392  0.57118027  0.41242688    -0.78400
O73         O  0.87874706  0.54186650  0.35360419    -0.90100
O74         O  0.03118062  0.69089315  0.30906831    -0.76000
O75         O  0.04293686  0.60620508  0.35083223    -0.85500
O76         O  0.96935120  0.58988757  0.31146405    -0.85200
O77         O  0.98725452  0.50025922  0.38606420    -0.72000
O78         O  0.91975184  0.48634649  0.34904314    -0.84100
Zr79       Zr  0.04567105  0.51102551  0.30039866     2.26400
Zr80       Zr  0.07156062  0.54875741  0.37038383     2.06300
Zr81       Zr  0.93205641  0.51880676  0.29529503     2.10000
Zr82       Zr  0.05337842  0.63764908  0.29739218     1.78800
O83         O  0.86427082  0.44071587  0.29295725    -0.92900
O84         O  0.12779640  0.70344976  0.30673136    -0.40700
O85         O  0.01622429  0.56775889  0.28014441    -0.77300
O86         O  0.08484164  0.58259427  0.31663344    -0.96000
O87         O  0.03416779  0.47821775  0.35392848    -0.89300
O88         O  0.96136383  0.46213397  0.31465551    -0.92200
C89         C  0.00267221  0.68516174  0.32907298     1.01600
C90         C  0.85175628  0.52767039  0.33351009     1.14500
C91         C  0.03252544  0.57795383  0.42252443     1.05300
O92         O  0.14735422  0.62021575  0.37276005    -0.94300
O93         O  0.13678495  0.53973944  0.35757317    -0.90100
O94         O  0.12032470  0.51467250  0.31662108    -0.83200
C95         C  0.14658390  0.52682544  0.33743104     1.11900
O96         O  0.88928515  0.38878752  0.41087331    -0.96300
Zr97       Zr  0.95037237  0.43059580  0.36827725     1.88900
O98         O  0.02479867  0.42442579  0.31265076    -0.72900
O99         O  0.07969074  0.49032583  0.41496960    -0.52200
O100        O  0.97472732  0.39123363  0.41438488    -0.96900
O101        O  0.87362391  0.36537869  0.36069190    -0.54100
O102        O  0.97178699  0.37786376  0.35496102    -0.73500
C103        C  0.99862937  0.38331215  0.33399911     0.98900
O104        O  0.10915636  0.54974132  0.25943948    -0.62300
O105        O  0.91226939  0.57057143  0.25293581    -0.57100
O106        O  0.01546809  0.50477072  0.25217289    -0.93800
O107        O  0.95073994  0.51543689  0.24784506    -0.92200
O108        O  0.03195538  0.67700693  0.24994387    -0.92500
O109        O  0.11694724  0.67903792  0.25654300    -0.91300
C110        C  0.98225559  0.50980203  0.23754719     1.17700
H111        H  0.95454223  0.61005658  0.30356425     0.33700
H112        H  0.11871369  0.60116489  0.31011937     0.44500
H113        H  0.94642950  0.43544830  0.30630945     0.38000
H114        H  0.98143382  0.48770843  0.40774147     0.34500
H115        H  0.12941316  0.73513615  0.29394738     0.26300
H116        H  0.10868543  0.51162250  0.42297565     0.32300
H117        H  0.96463829  0.35740423  0.41419211     0.38200
H118        H  0.04953132  0.71314760  0.24724166     0.32600
H119        H  0.87914650  0.54769655  0.24989471     0.31500
H120        H  0.85075324  0.45074508  0.27420006     0.33200
H121        H  0.88014684  0.35965929  0.34272531     0.32100
H122        H  0.11113667  0.65237353  0.24866441     0.36100
H123        H  0.10032134  0.56961918  0.24203002     0.28900
H124        H  0.90736306  0.55452394  0.41331957     0.33100
H125        H  0.88102741  0.35327502  0.41836198     0.36000
H126        H  0.90943341  0.59385197  0.26055864     0.28600
H127        H  0.13762749  0.57570947  0.26517096     0.41400
H128        H  0.15926916  0.64199085  0.35153093     0.31500
H129        H  0.12188193  0.70105564  0.32754924     0.39100
H130        H  0.85416781  0.38174027  0.35397115     0.31000
H131        H  0.05288805  0.47845170  0.42984077     0.31000
H132        H  0.90579871  0.50287574  0.42361248     0.31300
Zr133      Zr  0.46477295  0.05911247  0.36523552     2.17500
O134        O  0.40694970  0.01722628  0.40953864    -0.51100
O135        O  0.47938825  0.14315313  0.35447301    -0.74300
O136        O  0.50457724  0.07740424  0.40894614    -0.81000
O137        O  0.36891409  0.02919903  0.31147274    -0.82800
O138        O  0.57305023  0.07402000  0.40898480    -0.78400
O139        O  0.38534610  0.04642120  0.35516866    -0.90100
O140        O  0.53420623  0.19464111  0.31322914    -0.76000
O141        O  0.54844391  0.10908160  0.35002846    -0.85500
O142        O  0.47365424  0.09603672  0.31189156    -0.85200
O143        O  0.49480932  0.00231123  0.38248043    -0.72000
O144        O  0.42540317  0.99054554  0.34648414    -0.84100
Zr145      Zr  0.54975768  0.02203119  0.29350263     2.26400
Zr146      Zr  0.57864713  0.05284012  0.36578816     2.06300
Zr147      Zr  0.43592213  0.02822275  0.29294454     2.10000
Zr148      Zr  0.55736770  0.14556889  0.29691819     1.78800
O149        O  0.36463694  0.95266161  0.29052434    -0.92900
O150        O  0.63115364  0.20913790  0.30846750    -0.40700
O151        O  0.51980315  0.07877017  0.27683237    -0.77300
O152        O  0.58976290  0.09086164  0.31216648    -0.96000
O153        O  0.54090633  0.98520339  0.34675332    -0.89300
O154        O  0.46592213  0.97176781  0.30874486    -0.92200
C155        C  0.50553423  0.18588409  0.33437810     1.01600
C156        C  0.35840424  0.03627332  0.33429066     1.14500
C157        C  0.54310194  0.08075910  0.42005252     1.05300
O158        O  0.65522042  0.12361881  0.36810345    -0.94300
O159        O  0.64210535  0.04413743  0.34995821    -0.90100
O160        O  0.62438234  0.02422918  0.30716027    -0.83200
C161        C  0.65079023  0.03324099  0.32838927     1.11900
O162        O  0.39894494  0.89204545  0.40622865    -0.96300
Zr163      Zr  0.45752008  0.93565806  0.36212192     1.88900
O164        O  0.53139352  0.93704573  0.30234176    -0.72900
O165        O  0.58605650  0.99239457  0.40948261    -0.52200
O166        O  0.48417316  0.89263402  0.40525735    -0.96900
O167        O  0.38117616  0.87056553  0.35409291    -0.54100
O168        O  0.47934401  0.88647922  0.34492130    -0.73500
C169        C  0.50610288  0.89456998  0.32291725     0.98900
O170        O  0.61016704  0.06600754  0.25021215    -0.62300
O171        O  0.41975925  0.08403381  0.25104071    -0.57100
O172        O  0.51606352  0.01506109  0.24644626    -0.93800
O173        O  0.45027638  0.02351761  0.24504706    -0.92200
O174        O  0.53442845  0.18791317  0.25137986    -0.92500
O175        O  0.62094000  0.19283138  0.25546923    -0.91300
C176        C  0.48118605  0.01859294  0.23342860     1.17700
H177        H  0.45845339  0.11605181  0.30555376     0.33700
H178        H  0.62344664  0.11000236  0.30506558     0.44500
H179        H  0.45071425  0.94630929  0.29944864     0.38000
H180        H  0.48973765  0.98824391  0.40417074     0.34500
H181        H  0.63266228  0.24130059  0.29700509     0.26300
H182        H  0.61406229  0.01295065  0.41847976     0.32300
H183        H  0.46677311  0.85720918  0.40629657     0.38200
H184        H  0.55136532  0.22343901  0.25009586     0.32600
H185        H  0.38702036  0.06243725  0.24678162     0.31500
H186        H  0.34914002  0.96471346  0.27355323     0.33200
H187        H  0.38776494  0.86603974  0.33564751     0.32100
H188        H  0.61611966  0.16821675  0.24600829     0.36100
H189        H  0.60023752  0.08763049  0.23494283     0.28900
H190        H  0.41222315  0.04405008  0.41710207     0.33100
H191        H  0.38874838  0.85616618  0.41178518     0.36000
H192        H  0.41653082  0.10629207  0.25947368     0.28600
H193        H  0.63947330  0.09017588  0.25649066     0.41400
H194        H  0.66839602  0.14411425  0.34685019     0.31500
H195        H  0.62483419  0.20428683  0.32976992     0.39100
H196        H  0.36130746  0.88654323  0.34807014     0.31000
H197        H  0.55828295  0.97867595  0.42410357     0.31000
H198        H  0.41806594  0.99684193  0.42485149     0.31300
Zr199      Zr  0.46753782  0.56539317  0.36449054     2.17500
O200        O  0.41061883  0.53402695  0.40767170    -0.51100
O201        O  0.48858228  0.65238736  0.35025229    -0.74300
O202        O  0.50752992  0.58139060  0.40889368    -0.81000
O203        O  0.36775873  0.53055041  0.31340216    -0.82800
O204        O  0.57232157  0.57141803  0.40999197    -0.78400
O205        O  0.38869404  0.55516314  0.35449880    -0.90100
O206        O  0.54188538  0.69777816  0.30814234    -0.76000
O207        O  0.55093316  0.61086321  0.34804759    -0.85500
O208        O  0.47469484  0.59679902  0.31090699    -0.85200
O209        O  0.49312502  0.50493976  0.38377083    -0.72000
O210        O  0.42343098  0.49356872  0.34874825    -0.84100
Zr211      Zr  0.54225743  0.51218992  0.29637121     2.26400
Zr212      Zr  0.57651131  0.55069308  0.36611808     2.06300
Zr213      Zr  0.43231085  0.52572421  0.29494756     2.10000
Zr214      Zr  0.55781486  0.64162878  0.29455748     1.78800
O215        O  0.36043397  0.44952888  0.29381414    -0.92900
O216        O  0.63644398  0.70663742  0.29991434    -0.40700
O217        O  0.51562890  0.57152146  0.27769432    -0.77300
O218        O  0.58643810  0.58381174  0.31227856    -0.96000
O219        O  0.53429794  0.48023825  0.34979825    -0.89300
O220        O  0.45875876  0.46636135  0.31261311    -0.92200
C221        C  0.51548048  0.69323241  0.32898214     1.01600
C222        C  0.35979405  0.54199184  0.33495018     1.14500
C223        C  0.54428837  0.58076803  0.42085633     1.05300
O224        O  0.65470625  0.62145193  0.36586203    -0.94300
O225        O  0.63663121  0.53632009  0.35149262    -0.90100
O226        O  0.61559869  0.51123236  0.31058617    -0.83200
C227        C  0.64320506  0.52188667  0.33110211     1.11900
O228        O  0.39511736  0.39580501  0.41098012    -0.96300
Zr229      Zr  0.45143184  0.43523384  0.36616677     1.88900
O230        O  0.51904756  0.42500729  0.30873688    -0.72900
O231        O  0.58608679  0.49122136  0.40921644    -0.52200
O232        O  0.47853065  0.39372434  0.40977303    -0.96900
O233        O  0.37217231  0.37263540  0.35964746    -0.54100
O234        O  0.46753320  0.37992171  0.35169885    -0.73500
C235        C  0.49282825  0.38431384  0.33029617     0.98900
O236        O  0.60193265  0.54943319  0.25345574    -0.62300
O237        O  0.41465518  0.57970642  0.25274018    -0.57100
O238        O  0.50675130  0.50391568  0.24976115    -0.93800
O239        O  0.44540908  0.51973791  0.24716893    -0.92200
O240        O  0.53160703  0.68019740  0.24919714    -0.92500
O241        O  0.61630871  0.67992280  0.25109655    -0.91300
C242        C  0.47383461  0.51102198  0.23613549     1.17700
H243        H  0.46099145  0.61816462  0.30374210     0.33700
H244        H  0.61987105  0.60102604  0.30492213     0.44500
H245        H  0.44182545  0.43967121  0.30437594     0.38000
H246        H  0.48861149  0.49243712  0.40548890     0.34500
H247        H  0.63989501  0.73832187  0.28553427     0.26300
H248        H  0.61473460  0.51217288  0.41761476     0.32300
H249        H  0.46071463  0.35793081  0.41160905     0.38200
H250        H  0.55241808  0.71667402  0.24492237     0.32600
H251        H  0.38070987  0.55840342  0.25026037     0.31500
H252        H  0.34251039  0.46134002  0.27863452     0.33200
H253        H  0.37613668  0.36833549  0.34052749     0.32100
H254        H  0.61150430  0.65145451  0.24546845     0.36100
H255        H  0.59268039  0.57027971  0.23698473     0.28900
H256        H  0.41977377  0.56325301  0.41385842     0.33100
H257        H  0.38347060  0.35950844  0.41709311     0.36000
H258        H  0.41473984  0.60457249  0.26021908     0.28600
H259        H  0.63182758  0.57439339  0.25879184     0.41400
H260        H  0.66464564  0.64290061  0.34444288     0.31500
H261        H  0.63300328  0.70843434  0.31996541     0.39100
H262        H  0.35327320  0.38976541  0.35520671     0.31000
H263        H  0.55900129  0.47762984  0.42434263     0.31000
H264        H  0.41832827  0.51168031  0.42413849     0.31300
Zr265      Zr  0.02196712  0.00629802  0.95820587     2.17500
O266        O  0.97323732  0.97643766  0.91986782    -0.51100
O267        O  0.04546000  0.94281839  0.97054126    -0.74300
O268        O  0.06858182  0.04218624  0.90923796    -0.81000
O269        O  0.90960489  0.93050541  0.01497118    -0.82800
O270        O  0.13292474  0.11877525  0.90494955    -0.78400
O271        O  0.94078153  0.93397948  0.97224780    -0.90100
O272        O  0.08911613  0.94804049  0.01047557    -0.76000
O273        O  0.10265765  0.04769513  0.96938297    -0.85500
O274        O  0.01894623  0.97647868  0.01161106    -0.85200
O275        O  0.04842852  0.09440543  0.93785390    -0.72000
O276        O  0.97166353  0.02825429  0.97687063    -0.84100
Zr277      Zr  0.07749056  0.12835627  0.02216681     2.26400
Zr278      Zr  0.12895821  0.13546525  0.95039186     2.06300
Zr279      Zr  0.97010760  0.99938972  0.03036404     2.10000
Zr280      Zr  0.09935683  0.01831289  0.02275341     1.78800
O281        O  0.89442909  0.99583588  0.03652737    -0.92900
O282        O  0.18041571  0.03916534  0.00974587    -0.40700
O283        O  0.05057495  0.04050924  0.04231773    -0.77300
O284        O  0.12799666  0.10644047  0.00385397    -0.96000
O285        O  0.07983402  0.15783745  0.96899478    -0.89300
O286        O  0.99662997  0.08689160  0.01117214    -0.92200
C287        C  0.06841049  0.92790812  0.99069466     1.01600
C288        C  0.90702780  0.91414402  0.99339596     1.14500
C289        C  0.10653641  0.08310085  0.89482283     1.05300
O290        O  0.20784007  0.14487088  0.94640355    -0.94300
O291        O  0.18617821  0.20904403  0.96309524    -0.90100
O292        O  0.15416293  0.20601355  0.00533885    -0.83200
C293        C  0.18750304  0.22664520  0.98385899     1.11900
O294        O  0.95072100  0.09408021  0.91769417    -0.96300
Zr295      Zr  0.99964115  0.11624849  0.95776916     1.88900
O296        O  0.05470610  0.19204729  0.01038484    -0.72900
O297        O  0.14629962  0.21017799  0.90753264    -0.52200
O298        O  0.03102693  0.18830438  0.91140343    -0.96900
O299        O  0.91880669  0.09826717  0.96854701    -0.54100
O300        O  0.01148496  0.18709245  0.97020284    -0.73500
C301        C  0.03228717  0.20728482  0.98997018     0.98900
O302        O  0.12685265  0.14772842  0.06277004    -0.62300
O303        O  0.94715297  0.92272606  0.07296400    -0.57100
O304        O  0.03185170  0.09539522  0.07050276    -0.93800
O305        O  0.97408420  0.01451297  0.07762529    -0.92200
O306        O  0.06936600  0.94925981  0.07050972    -0.92500
O307        O  0.15098841  0.03711058  0.06222742    -0.91300
C308        C  0.99839683  0.05210584  0.08660050     1.17700
H309        H  0.00516242  0.94057359  0.01944362     0.33700
H310        H  0.15993230  0.12346557  0.00944354     0.44500
H311        H  0.97694393  0.09423451  0.02056249     0.38000
H312        H  0.04774685  0.10480070  0.91631812     0.34500
H313        H  0.18345657  0.01076971  0.02354623     0.26300
H314        H  0.17532769  0.21854534  0.89606589     0.32300
H315        H  0.01122879  0.20382991  0.91050610     0.38200
H316        H  0.09067479  0.93512579  0.07259702     0.32600
H317        H  0.91261459  0.90836410  0.07836649     0.31500
H318        H  0.87987189  0.97146364  0.05696581     0.33200
H319        H  0.91826531  0.12876210  0.95572334     0.32100
H320        H  0.14421113  0.05926198  0.06855572     0.36100
H321        H  0.11462507  0.11559506  0.07967837     0.28900
H322        H  0.98823191  0.96170217  0.91220275     0.33100
H323        H  0.94096213  0.11958329  0.90935862     0.36000
H324        H  0.94850567  0.89942910  0.06459932     0.28600
H325        H  0.15875222  0.15502362  0.05613642     0.41400
H326        H  0.20192176  0.11430145  0.94293943     0.31500
H327        H  0.17991023  0.03573517  0.98973333     0.39100
H328        H  0.91708354  0.09833198  0.98927324     0.31000
H329        H  0.12034371  0.19861139  0.89465552     0.31000
H330        H  0.97878580  0.00686594  0.90297524     0.31300
Zr331      Zr  0.01465930  0.51293088  0.95535338     2.17500
O332        O  0.96484252  0.49993968  0.91430802    -0.51100
O333        O  0.02567224  0.44185609  0.96309825    -0.74300
O334        O  0.06189860  0.54661568  0.90698415    -0.81000
O335        O  0.90297809  0.44177841  0.01214905    -0.82800
O336        O  0.13311155  0.61530930  0.90656775    -0.78400
O337        O  0.93101483  0.44643120  0.96790584    -0.90100
O338        O  0.06591243  0.43423029  0.00425755    -0.76000
O339        O  0.09451696  0.54060953  0.96831393    -0.85500
O340        O  0.00811589  0.47552996  0.00855687    -0.85200
O341        O  0.05306039  0.60274447  0.93915188    -0.72000
O342        O  0.97320156  0.54140106  0.97660121    -0.84100
Zr343      Zr  0.08711624  0.62186865  0.02773875     2.26400
Zr344      Zr  0.13276175  0.62988245  0.95341726     2.06300
Zr345      Zr  0.96817884  0.50472065  0.02992875     2.10000
Zr346      Zr  0.08770785  0.50359492  0.02144110     1.78800
O347        O  0.90019534  0.51557375  0.03423525    -0.92900
O348        O  0.16334817  0.51170637  0.00861454    -0.40700
O349        O  0.04797446  0.53224352  0.04358484    -0.77300
O350        O  0.12845532  0.59305649  0.00671593    -0.96000
O351        O  0.09271087  0.65878102  0.97473484    -0.89300
O352        O  0.00701468  0.59389086  0.01503438    -0.92200
C353        C  0.04415697  0.41980961  0.98272324     1.01600
C354        C  0.89801847  0.42738834  0.98936405     1.14500
C355        C  0.10329561  0.58388894  0.89441038     1.05300
O356        O  0.20652186  0.62876536  0.94933880    -0.94300
O357        O  0.19619760  0.69714628  0.96881828    -0.90100
O358        O  0.16844173  0.69338433  0.01282663    -0.83200
C359        C  0.20087282  0.71302163  0.99090253     1.11900
O360        O  0.96343288  0.62244490  0.92046468    -0.96300
Zr361      Zr  0.01323445  0.63078015  0.96184020     1.88900
O362        O  0.07648162  0.69318161  0.02003306    -0.72900
O363        O  0.15982474  0.70898914  0.91223528    -0.52200
O364        O  0.05414706  0.70643828  0.91807416    -0.96900
O365        O  0.93769387  0.62458690  0.97291832    -0.50500
O366        O  0.03595521  0.70033916  0.97892896    -0.73500
C367        C  0.05815392  0.71521941  0.00021884     0.98900
O368        O  0.13679393  0.62900093  0.06937292    -0.62300
O369        O  0.93524460  0.42411046  0.07050511    -0.57100
O370        O  0.04138418  0.58774202  0.07650692    -0.93800
O371        O  0.97377705  0.51415894  0.07913105    -0.92200
O372        O  0.04991124  0.43027809  0.06676822    -0.92500
O373        O  0.13848904  0.51001059  0.06227311    -0.91300
C374        C  0.00291649  0.54721130  0.09057209     1.17700
H375        H  0.98988471  0.43944129  0.01474109     0.33700
H376        H  0.16032137  0.60475297  0.01290393     0.44500
H377        H  0.99079991  0.60369392  0.02535880     0.38000
H378        H  0.05387183  0.61639073  0.91761247     0.34500
H379        H  0.16045001  0.47906203  0.02063065     0.26300
H380        H  0.18941371  0.71561973  0.90238805     0.32300
H381        H  0.03827348  0.72580555  0.91746114     0.38200
H382        H  0.06639908  0.41142725  0.06755651     0.32600
H383        H  0.90181594  0.41449605  0.07549711     0.31500
H384        H  0.87811231  0.48553169  0.05102857     0.33200
H385        H  0.94289951  0.65875070  0.96265812     0.32100
H386        H  0.13452893  0.53173047  0.07084172     0.36100
H387        H  0.12114405  0.59535547  0.08502847     0.28900
H388        H  0.97484428  0.48361601  0.90433063     0.33100
H389        H  0.96063772  0.65290410  0.91317962     0.36000
H390        H  0.93237000  0.40004682  0.06114776     0.28600
H391        H  0.16662996  0.63253924  0.06215165     0.41400
H392        H  0.19646502  0.59719561  0.94569456     0.31500
H393        H  0.16236306  0.51207029  0.98761640     0.39100
H394        H  0.93553264  0.61983948  0.99458752     0.31000
H395        H  0.13616253  0.70138451  0.89750317     0.31000
H396        H  0.97558041  0.53384783  0.89953856     0.31300
Zr397      Zr  0.52311413  0.00936502  0.95713173     2.17500
O398        O  0.47371834  0.98452273  0.91780133    -0.51100
O399        O  0.54502472  0.94503588  0.96764997    -0.74300
O400        O  0.57030758  0.04596181  0.90838561    -0.81000
O401        O  0.41395975  0.92823191  0.01609255    -0.82800
O402        O  0.63368013  0.12295954  0.90439286    -0.78400
O403        O  0.44232624  0.93698408  0.97071641    -0.90100
O404        O  0.59027383  0.94907279  0.00688543    -0.76000
O405        O  0.60411854  0.05060764  0.96772427    -0.85500
O406        O  0.52147559  0.97714213  0.01032450    -0.85200
O407        O  0.54862818  0.09713779  0.93844018    -0.72000
O408        O  0.47313161  0.02927975  0.97806773    -0.84100
Zr409      Zr  0.58080188  0.12685205  0.02442026     2.26400
Zr410      Zr  0.62951997  0.13810036  0.95036229     2.06300
Zr411      Zr  0.47320877  0.99820252  0.03130859     2.10000
Zr412      Zr  0.60213254  0.01848796  0.02089973     1.78800
O413        O  0.39720414  0.99401369  0.03728149    -0.92900
O414        O  0.68245941  0.03821779  0.00703746    -0.40700
O415        O  0.55414080  0.03902354  0.04274618    -0.77300
O416        O  0.63063916  0.10663941  0.00361154    -0.96000
O417        O  0.58117073  0.15862401  0.97149932    -0.89300
O418        O  0.49959423  0.08563753  0.01404869    -0.92200
C419        C  0.56834561  0.92948566  0.98711016     1.01600
C420        C  0.41012543  0.91442523  0.99317365     1.14500
C421        C  0.60791585  0.08736042  0.89409520     1.05300
O422        O  0.70974880  0.15394522  0.94091665    -0.94300
O423        O  0.68801708  0.20995181  0.96409697    -0.90100
O424        O  0.65750193  0.20485167  0.00761599    -0.83200
C425        C  0.69015580  0.22648157  0.98553445     1.11900
O426        O  0.44786592  0.09815265  0.92186617    -0.96300
Zr427      Zr  0.50059130  0.11710084  0.96091674     1.88900
O428        O  0.55850933  0.19060161  0.01449511    -0.72900
O429        O  0.63992117  0.21221242  0.90936202    -0.52200
O430        O  0.53209555  0.19007585  0.91507006    -0.96900
O431        O  0.42005406  0.09780837  0.97401637    -0.54100
O432        O  0.51327183  0.18652055  0.97520694    -0.73500
C433        C  0.53514912  0.20603798  0.99502018     0.98900
O434        O  0.62977973  0.14348336  0.06555370    -0.62300
O435        O  0.45141049  0.92227582  0.07429066    -0.57100
O436        O  0.53459172  0.09188835  0.07299941    -0.93800
O437        O  0.47540323  0.01204327  0.07871392    -0.92200
O438        O  0.57034682  0.94783336  0.06786756    -0.92500
O439        O  0.65368967  0.03341346  0.06086881    -0.91300
C440        C  0.49979424  0.04882609  0.08833235     1.17700
H441        H  0.50771795  0.94123899  0.01759088     0.33700
H442        H  0.66287138  0.12341164  0.00884005     0.44500
H443        H  0.48020282  0.09221906  0.02432496     0.38000
H444        H  0.54739194  0.10818221  0.91696521     0.34500
H445        H  0.68506008  0.00923906  0.02035122     0.26300
H446        H  0.67255609  0.22787682  0.89943292     0.32300
H447        H  0.51285273  0.20599585  0.91475258     0.38200
H448        H  0.58678007  0.92923073  0.06787532     0.32600
H449        H  0.41616721  0.90529024  0.07825107     0.31500
H450        H  0.38219425  0.96881826  0.05745878     0.33200
H451        H  0.42074498  0.13012585  0.96518739     0.32100
H452        H  0.65306356  0.06078602  0.06501764     0.36100
H453        H  0.61814306  0.11043059  0.08153229     0.28900
H454        H  0.48747483  0.96957365  0.90927714     0.33100
H455        H  0.44015982  0.12533176  0.91430510     0.36000
H456        H  0.45701389  0.90067676  0.06656329     0.28600
H457        H  0.66207454  0.15251297  0.05836293     0.41400
H458        H  0.70631896  0.12030168  0.94757197     0.31500
H459        H  0.68136210  0.03539706  0.98680832     0.39100
H460        H  0.41705389  0.09047360  0.99598593     0.31000
H461        H  0.61835573  0.19933022  0.89463342     0.31000
H462        H  0.48058302  0.01618937  0.90164774     0.31300
Zr463      Zr  0.51385224  0.50897433  0.95817647     2.17500
O464        O  0.46627148  0.49250598  0.91660897    -0.51100
O465        O  0.52533774  0.43764741  0.96847285    -0.74300
O466        O  0.56256870  0.54201585  0.91057255    -0.81000
O467        O  0.39965101  0.43987960  0.01214588    -0.82800
O468        O  0.63260056  0.61218422  0.90975380    -0.78400
O469        O  0.42953347  0.44412587  0.96869505    -0.90100
O470        O  0.56515215  0.43194371  0.00997906    -0.76000
O471        O  0.59259157  0.53596270  0.97317770    -0.85500
O472        O  0.50420145  0.47259603  0.01161881    -0.85200
O473        O  0.55316137  0.59895192  0.94098318    -0.72000
O474        O  0.47120696  0.53914953  0.97657497    -0.84100
Zr475      Zr  0.58200197  0.62062483  0.02901769     2.26400
Zr476      Zr  0.63184503  0.62544766  0.95716615     2.06300
Zr477      Zr  0.46320254  0.50368635  0.03012340     2.10000
Zr478      Zr  0.58268608  0.50051262  0.02661085     1.78800
O479        O  0.39556022  0.51632317  0.03110577    -0.92900
O480        O  0.66018727  0.50904772  0.01828173    -0.40700
O481        O  0.54177454  0.53082023  0.04599302    -0.77300
O482        O  0.62440377  0.59012874  0.01077946    -0.96000
O483        O  0.59064799  0.65618555  0.97572826    -0.89300
O484        O  0.50297434  0.59295619  0.01431481    -0.92200
C485        C  0.54408356  0.41663806  0.98859177     1.01600
C486        C  0.39566917  0.42545360  0.98948986     1.14500
C487        C  0.60340135  0.58008916  0.89777741     1.05300
O488        O  0.70182095  0.61590424  0.95827053    -0.94300
O489        O  0.69378133  0.69357426  0.97268905    -0.90100
O490        O  0.66375491  0.69181292  0.01520993    -0.83200
C491        C  0.69722708  0.71056756  0.99410111     1.11900
O492        O  0.46220755  0.61840611  0.91977353    -0.96300
Zr493      Zr  0.51218291  0.62867021  0.96095051     1.88900
O494        O  0.57061589  0.69191163  0.01941441    -0.72900
O495        O  0.66896142  0.70598405  0.91650043    -0.52200
O496        O  0.55496903  0.70081869  0.91565393    -0.96900
O497        O  0.43767612  0.62610875  0.96988520    -0.54100
O498        O  0.53472120  0.69987704  0.97627533    -0.73500
C499        C  0.55446260  0.71452122  0.99815984     0.98900
O500        O  0.62980000  0.62906423  0.07144919    -0.62300
O501        O  0.42600289  0.42469956  0.07205857    -0.57100
O502        O  0.53389021  0.58742157  0.07668876    -0.93800
O503        O  0.46543543  0.51508669  0.07836487    -0.92200
O504        O  0.53985930  0.42560284  0.07049313    -0.92500
O505        O  0.62682340  0.50453345  0.07053093    -0.91300
C506        C  0.49422679  0.54789488  0.09001912     1.17700
H507        H  0.48577124  0.43648172  0.01807850     0.33700
H508        H  0.65574776  0.60169542  0.01776669     0.44500
H509        H  0.48624503  0.60341030  0.02366448     0.38000
H510        H  0.55494409  0.61224741  0.91935543     0.34500
H511        H  0.65615164  0.47578024  0.03000490     0.26300
H512        H  0.69619395  0.70772156  0.90701225     0.32300
H513        H  0.54587161  0.72530874  0.91608982     0.38200
H514        H  0.55516119  0.40550924  0.07167995     0.32600
H515        H  0.39154607  0.41397661  0.07342818     0.31500
H516        H  0.38659308  0.52146923  0.01029447     0.33200
H517        H  0.44334592  0.65992417  0.95782250     0.32100
H518        H  0.63015551  0.53383289  0.07444359     0.36100
H519        H  0.61319062  0.59606176  0.08764085     0.28900
H520        H  0.47599835  0.47366522  0.90883042     0.33100
H521        H  0.46270226  0.65053841  0.91033209     0.36000
H522        H  0.42781951  0.40041878  0.06492401     0.28600
H523        H  0.65951659  0.63120724  0.06533247     0.41400
H524        H  0.69434498  0.59265304  0.94715163     0.31500
H525        H  0.66282537  0.51159858  0.99702987     0.39100
H526        H  0.43597682  0.62459008  0.99098346     0.31000
H527        H  0.64572314  0.70254158  0.90137013     0.31000
H528        H  0.47816291  0.52543176  0.90045347     0.31300
Zr529      Zr  0.05080420  0.13138350  0.61340041     2.17500
O530        O  0.02192522  0.17394582  0.57142096    -0.51100
O531        O  0.98200137  0.04761703  0.62495960    -0.74300
O532        O  0.05573024  0.11449817  0.56807724    -0.81000
O533        O  0.00702399  0.16632127  0.66897864    -0.82800
O534        O  0.12714113  0.11856854  0.56331475    -0.78400
O535        O  0.99042453  0.14702534  0.62596836    -0.90100
O536        O  0.99858236  0.99510592  0.66266947    -0.76000
O537        O  0.08703584  0.08090965  0.62489672    -0.85500
O538        O  0.03888209  0.09376649  0.66674963    -0.85200
O539        O  0.13315600  0.18790613  0.59338741    -0.72000
O540        O  0.08827371  0.19933371  0.63264458    -0.84100
Zr541      Zr  0.19595658  0.16520500  0.67951569     2.26400
Zr542      Zr  0.16960910  0.13691888  0.60627232     2.06300
Zr543      Zr  0.07776177  0.16126644  0.68608226     2.10000
Zr544      Zr  0.07550397  0.04361328  0.67806733     1.78800
O545        O  0.09390037  0.23812784  0.69298479    -0.92900
O546        O  0.08028326  0.97840085  0.66718016    -0.40700
O547        O  0.11336712  0.10974733  0.69829473    -0.77300
O548        O  0.15884561  0.09716642  0.65999616    -0.96000
O549        O  0.20812900  0.20382306  0.62623245    -0.89300
O550        O  0.16074129  0.21691770  0.66802155    -0.92200
C551        C  0.97159904  0.00434616  0.64362304     1.01600
C552        C  0.98203383  0.15941413  0.64686341     1.14500
C553        C  0.08653325  0.11203361  0.55441135     1.05300
O554        O  0.17022671  0.06589717  0.60092898    -0.94300
O555        O  0.24572533  0.14180451  0.61903769    -0.90100
O556        O  0.25683603  0.15118105  0.66494866    -0.83200
C557        C  0.26905664  0.14561121  0.64205119     1.11900
O558        O  0.14258702  0.29868511  0.57376478    -0.96300
Zr559      Zr  0.17116972  0.25361588  0.61443204     1.88900
O560        O  0.26020442  0.25065546  0.67006066    -0.72900
O561        O  0.22590505  0.19773356  0.56168644    -0.52200
O562        O  0.22626189  0.29608917  0.56871784    -0.96900
O563        O  0.16624499  0.31852181  0.62581979    -0.54100
O564        O  0.24879548  0.30234195  0.62856892    -0.73500
C565        C  0.27294049  0.29330603  0.64985892     0.98900
O566        O  0.24006730  0.14521428  0.72085689    -0.62300
O567        O  0.01410924  0.11040384  0.72766577    -0.57100
O568        O  0.17505948  0.14925872  0.73194248    -0.93800
O569        O  0.10639101  0.15098798  0.73536871    -0.92200
O570        O  0.01997592  0.99895038  0.72367022    -0.92500
O571        O  0.10240396  0.99821869  0.71957196    -0.91300
C572        C  0.14146896  0.14603833  0.74677749     1.17700
H573        H  0.00529463  0.07385405  0.67411535     0.33700
H574        H  0.17398250  0.07705530  0.66578339     0.44500
H575        H  0.17523455  0.24180225  0.67775896     0.38000
H576        H  0.13540614  0.20251451  0.57180346     0.34500
H577        H  0.05247101  0.94665866  0.67959277     0.26300
H578        H  0.22932109  0.17723838  0.55171618     0.32300
H579        H  0.24562536  0.33148519  0.56763161     0.38200
H580        H  0.00172300  0.96368992  0.72438643     0.32600
H581        H  0.00319623  0.13290630  0.72936634     0.31500
H582        H  0.07805770  0.22698588  0.71328788     0.33200
H583        H  0.18072336  0.31983568  0.64489292     0.32100
H584        H  0.12654655  0.02403649  0.72760901     0.36100
H585        H  0.23544939  0.11224136  0.72246933     0.28900
H586        H  0.99671882  0.14739822  0.56430947     0.33100
H587        H  0.16841843  0.33422240  0.56736051     0.36000
H588        H  0.98715660  0.08568560  0.72022269     0.28600
H589        H  0.27441984  0.16939493  0.71384884     0.41400
H590        H  0.16777084  0.04414380  0.62179318     0.31500
H591        H  0.07221909  0.98200005  0.64624281     0.39100
H592        H  0.13171299  0.30409394  0.63129480     0.31000
H593        H  0.20822974  0.21227806  0.54814387     0.31000
H594        H  0.04862776  0.19431168  0.55505800     0.31300
Zr595      Zr  0.04775860  0.62360123  0.61676931     2.17500
O596        O  0.00787867  0.65621823  0.57756924    -0.51100
O597        O  0.98375513  0.53682743  0.63115611    -0.74300
O598        O  0.05413103  0.61077725  0.57004487    -0.81000
O599        O  0.00311008  0.65746048  0.67221772    -0.82800
O600        O  0.12741136  0.61997426  0.56329278    -0.78400
O601        O  0.98419913  0.63348890  0.63090998    -0.90100
O602        O  0.00328405  0.48993549  0.67094045    -0.76000
O603        O  0.08799672  0.57706186  0.62814470    -0.85500
O604        O  0.04096396  0.59056703  0.67022771    -0.85200
O605        O  0.12844564  0.68332190  0.59418373    -0.72000
O606        O  0.08400086  0.69474788  0.63324761    -0.84100
Zr607      Zr  0.19942507  0.67218204  0.67792168     2.26400
Zr608      Zr  0.16905370  0.63638200  0.60686415     2.06300
Zr609      Zr  0.07831896  0.66119920  0.68680567     2.10000
Zr610      Zr  0.08196995  0.54466068  0.68149173     1.78800
O611        O  0.09386698  0.73981130  0.69071538    -0.92900
O612        O  0.09131255  0.48277854  0.66952192    -0.40700
O613        O  0.11820296  0.61384463  0.69907793    -0.77300
O614        O  0.16352654  0.60142240  0.66072196    -0.96000
O615        O  0.20676548  0.70621003  0.62443183    -0.89300
O616        O  0.16001311  0.71995751  0.66632923    -0.92200
C617        C  0.97512208  0.49549962  0.65159310     1.01600
C618        C  0.97590190  0.64619097  0.65164863     1.14500
C619        C  0.08617161  0.61206883  0.55501032     1.05300
O620        O  0.16729525  0.56436490  0.60122186    -0.94300
O621        O  0.24555202  0.64204570  0.61889291    -0.90100
O622        O  0.25936665  0.65661728  0.66336537    -0.83200
C623        C  0.27014324  0.64830221  0.64119227     1.11900
O624        O  0.13377842  0.79366823  0.57244279    -0.96300
Zr625      Zr  0.16578876  0.75204237  0.61266375     1.88900
O626        O  0.26083556  0.75984498  0.66496964    -0.72900
O627        O  0.22624159  0.69710515  0.56272846    -0.52200
O628        O  0.21660379  0.79280603  0.56521960    -0.96900
O629        O  0.15844015  0.81653206  0.62279025    -0.54100
O630        O  0.24450276  0.80625310  0.62313611    -0.73500
C631        C  0.27094684  0.80088051  0.64376173     0.98900
O632        O  0.25241966  0.66684934  0.71670813    -0.62300
O633        O  0.01749303  0.61482646  0.72992871    -0.57100
O634        O  0.17864225  0.65419606  0.73104049    -0.93800
O635        O  0.10854263  0.65270295  0.73558466    -0.92200
O636        O  0.03337551  0.50014931  0.72994935    -0.92500
O637        O  0.11825909  0.50704343  0.72061743    -0.91300
C638        C  0.14465879  0.64950007  0.74646786     1.17700
H639        H  0.00791291  0.56934925  0.67876509     0.33700
H640        H  0.17979955  0.58245925  0.66652725     0.44500
H641        H  0.17425595  0.74619989  0.67503563     0.38000
H642        H  0.12907768  0.69661788  0.57263454     0.34500
H643        H  0.06685885  0.45009044  0.68357959     0.26300
H644        H  0.23003766  0.67659285  0.55295627     0.32300
H645        H  0.23732507  0.82823831  0.56380975     0.38200
H646        H  0.01806052  0.46426763  0.73228450     0.32600
H647        H  0.00671537  0.63794993  0.73062961     0.31500
H648        H  0.07914963  0.73037998  0.71105765     0.33200
H649        H  0.17679960  0.82232113  0.64011218     0.32100
H650        H  0.13547271  0.53179320  0.73097829     0.36100
H651        H  0.25052694  0.63426782  0.72074059     0.28900
H652        H  0.98505419  0.62780655  0.57099144     0.33100
H653        H  0.15904491  0.82944145  0.56501294     0.36000
H654        H  0.98977640  0.58813702  0.72422629     0.28600
H655        H  0.28532078  0.69245545  0.70699069     0.41400
H656        H  0.17351280  0.54704300  0.62109658     0.31500
H657        H  0.07956382  0.48353619  0.64954907     0.39100
H658        H  0.12457450  0.79981402  0.63091412     0.31000
H659        H  0.20875873  0.71160869  0.54892725     0.31000
H660        H  0.03267282  0.68001550  0.56024204     0.31300
Zr661      Zr  0.55382609  0.13279053  0.61065933     2.17500
O662        O  0.52368715  0.17648970  0.57031323    -0.51100
O663        O  0.48930746  0.04795878  0.61804553    -0.74300
O664        O  0.56488028  0.12503081  0.56313942    -0.81000
O665        O  0.49758602  0.14670522  0.67190901    -0.82800
O666        O  0.63953819  0.13666433  0.55756638    -0.78400
O667        O  0.48718452  0.13745698  0.62585032    -0.90100
O668        O  0.50732944  0.99477399  0.65408219    -0.76000
O669        O  0.59669170  0.08932285  0.61791953    -0.85500
O670        O  0.54069150  0.08688736  0.66306723    -0.85200
O671        O  0.63566491  0.19648567  0.59289672    -0.72000
O672        O  0.58345462  0.19390425  0.63520548    -0.84100
Zr673      Zr  0.69554945  0.16523450  0.67942359     2.26400
Zr674      Zr  0.67874654  0.15232619  0.60177525     2.06300
Zr675      Zr  0.57134891  0.14744648  0.68770855     2.10000
Zr676      Zr  0.58364004  0.04351418  0.67015255     1.78800
O677        O  0.57510208  0.21574810  0.69986451    -0.92900
O678        O  0.59400598  0.98925271  0.65013153    -0.40700
O679        O  0.61344745  0.10247456  0.69610982    -0.77300
O680        O  0.66637478  0.10470897  0.65428574    -0.96000
O681        O  0.70901165  0.21189474  0.62709604    -0.89300
O682        O  0.65347742  0.20977251  0.67184297    -0.92200
C683        C  0.48021319  0.00424997  0.63522728     1.01600
C684        C  0.47439933  0.14248254  0.64881623     1.14500
C685        C  0.59844194  0.12782801  0.54865799     1.05300
O686        O  0.69391405  0.09369565  0.59019051    -0.94300
O687        O  0.75671521  0.16269587  0.61499275    -0.90100
O688        O  0.76756665  0.17320980  0.66069270    -0.83200
C689        C  0.78113601  0.16988013  0.63729395     1.11900
O690        O  0.63617401  0.30156542  0.58059805    -0.96300
Zr691      Zr  0.66604544  0.25514492  0.61925212     1.88900
O692        O  0.75630639  0.24997410  0.67525403    -0.72900
O693        O  0.73374381  0.22346019  0.55946643    -0.52200
O694        O  0.72386570  0.30828493  0.57462910    -0.96900
O695        O  0.65229328  0.31127811  0.63518834    -0.54100
O696        O  0.74057636  0.30315723  0.63734619    -0.73500
C697        C  0.76601686  0.29365367  0.65763869     0.98900
O698        O  0.72627026  0.11851607  0.71738562    -0.62300
O699        O  0.50775345  0.08303131  0.72800308    -0.57100
O700        O  0.67918044  0.15726660  0.73082836    -0.93800
O701        O  0.60240623  0.14018108  0.73628560    -0.92200
O702        O  0.53018334  0.98812426  0.71649783    -0.92500
O703        O  0.61668966  0.99698292  0.70548318    -0.91300
C704        C  0.64196757  0.14565274  0.74651313     1.17700
H705        H  0.50707066  0.06404938  0.66982134     0.33700
H706        H  0.68456372  0.08773773  0.65837145     0.44500
H707        H  0.66487379  0.23182494  0.68352417     0.38000
H708        H  0.63838560  0.21411558  0.57164336     0.34500
H709        H  0.56901688  0.95485306  0.66196831     0.26300
H710        H  0.74606388  0.20908883  0.54933835     0.32300
H711        H  0.74113061  0.34203037  0.57642199     0.38200
H712        H  0.51558048  0.95414506  0.71524836     0.32600
H713        H  0.49641224  0.10129417  0.73510646     0.31500
H714        H  0.55038289  0.19904777  0.71714725     0.33200
H715        H  0.66404706  0.30931055  0.65522526     0.32100
H716        H  0.62759732  0.01306650  0.72105699     0.36100
H717        H  0.69839297  0.09176475  0.73226258     0.28900
H718        H  0.50132253  0.15142474  0.56118254     0.33100
H719        H  0.66056717  0.33740277  0.57592551     0.36000
H720        H  0.48097045  0.06318607  0.71798879     0.28600
H721        H  0.73306810  0.09987855  0.70753148     0.41400
H722        H  0.66236899  0.06259904  0.59459268     0.31500
H723        H  0.58333214  0.99514218  0.62976333     0.39100
H724        H  0.61707659  0.29430784  0.63931828     0.31000
H725        H  0.71321295  0.23255201  0.54527332     0.31000
H726        H  0.55132299  0.20081985  0.55477436     0.31300
Zr727      Zr  0.55027025  0.62317412  0.61520479     2.17500
O728        O  0.51430805  0.65946395  0.57493004    -0.51100
O729        O  0.48874216  0.53652618  0.62562748    -0.74300
O730        O  0.56112240  0.61353752  0.56809936    -0.81000
O731        O  0.49570150  0.64582272  0.67239917    -0.82800
O732        O  0.63606619  0.62568670  0.56313056    -0.78400
O733        O  0.48263229  0.62727128  0.62914333    -0.90100
O734        O  0.50798372  0.48833329  0.66473003    -0.76000
O735        O  0.59349313  0.57968699  0.62606384    -0.85500
O736        O  0.53922779  0.58470715  0.66852927    -0.85200
O737        O  0.63139070  0.68653153  0.59534892    -0.72000
O738        O  0.58034395  0.68990260  0.63529107    -0.84100
Zr739      Zr  0.69575833  0.66973324  0.68135944     2.26400
Zr740      Zr  0.67480748  0.64257687  0.60755189     2.06300
Zr741      Zr  0.57092283  0.65114968  0.68864935     2.10000
Zr742      Zr  0.58326306  0.54207809  0.67926908     1.78800
O743        O  0.57750992  0.72478836  0.69512300    -0.92900
O744        O  0.59683112  0.48362887  0.66608733    -0.40700
O745        O  0.61427486  0.60732766  0.70015724    -0.77300
O746        O  0.66534291  0.60265338  0.66121192    -0.96000
O747        O  0.70655032  0.70878254  0.62812369    -0.89300
O748        O  0.65274500  0.71376439  0.67071755    -0.92200
C749        C  0.48079355  0.49454581  0.64483874     1.01600
C750        C  0.47103512  0.63665301  0.65047377     1.14500
C751        C  0.59499888  0.61640075  0.55384333     1.05300
O752        O  0.68348113  0.57694161  0.60043735    -0.94300
O753        O  0.75158324  0.65073035  0.62112539    -0.90100
O754        O  0.76039627  0.66058858  0.66692163    -0.83200
C755        C  0.77413636  0.65551586  0.64430972     1.11900
O756        O  0.62786149  0.78996093  0.57712595    -0.96300
Zr757      Zr  0.66225592  0.75116755  0.61720687     1.88900
O758        O  0.75480823  0.75753285  0.67155984    -0.72900
O759        O  0.73322902  0.70886062  0.56516077    -0.52200
O760        O  0.71771292  0.80045149  0.57137286    -0.96900
O761        O  0.64856600  0.81031049  0.62957123    -0.54100
O762        O  0.73748435  0.80577845  0.63133582    -0.73500
C763        C  0.76366899  0.79960973  0.65197561     0.98900
O764        O  0.74344139  0.65720668  0.72227612    -0.62300
O765        O  0.50833019  0.59637038  0.73075779    -0.57100
O766        O  0.67262729  0.65060091  0.73406246    -0.93800
O767        O  0.59925312  0.64250725  0.73805718    -0.92200
O768        O  0.52960989  0.49276138  0.72583149    -0.92500
O769        O  0.61597966  0.50093800  0.71908856    -0.91300
C770        C  0.63653752  0.64248240  0.74921847     1.17700
H771        H  0.50580975  0.56189174  0.67593451     0.33700
H772        H  0.68284613  0.58495981  0.66680028     0.44500
H773        H  0.66446823  0.73826791  0.68069752     0.38000
H774        H  0.63342045  0.70146146  0.57380911     0.34500
H775        H  0.56993954  0.45010603  0.67743450     0.26300
H776        H  0.74092097  0.69110439  0.55504095     0.32300
H777        H  0.73416937  0.83541077  0.57117892     0.38200
H778        H  0.51466864  0.45760759  0.72660194     0.32600
H779        H  0.49603501  0.61728754  0.73334648     0.31500
H780        H  0.57916316  0.71897888  0.71694220     0.33200
H781        H  0.66412628  0.81384427  0.64809679     0.32100
H782        H  0.63590900  0.52622478  0.72867137     0.36100
H783        H  0.74285572  0.62591714  0.72409878     0.28900
H784        H  0.49164890  0.63192053  0.56761859     0.33100
H785        H  0.65087076  0.82642281  0.57070990     0.36000
H786        H  0.48190940  0.57138975  0.72319172     0.28600
H787        H  0.77692123  0.68428458  0.71481863     0.41400
H788        H  0.67883603  0.55324916  0.62101549     0.31500
H789        H  0.59030943  0.48861007  0.64481776     0.39100
H790        H  0.61385797  0.79188152  0.63615166     0.31000
H791        H  0.71495492  0.72182478  0.55105546     0.31000
H792        H  0.54026454  0.68319070  0.55824174     0.31300
C793        C  0.80963074  0.33544655  0.65996222    -0.18200
C794        C  0.84732808  0.37183523  0.65916469     0.05800
C795        C  0.89185032  0.41503128  0.65624787     0.07700
C796        C  0.92997739  0.45205446  0.65351096    -0.19100
C797        C  0.31567895  0.84426361  0.64260503    -0.18200
C798        C  0.35343615  0.88163757  0.63993947     0.05800
C799        C  0.39757902  0.92556034  0.63627413     0.07700
C800        C  0.43544207  0.96244479  0.63434005    -0.19100
C801        C  0.93272134  0.64806368  0.65158549    -0.18200
C802        C  0.89629917  0.64965072  0.65017984     0.05800
C803        C  0.85387539  0.65197921  0.64760123     0.07700
C804        C  0.81764954  0.65400405  0.64553135    -0.19100
C805        C  0.42724688  0.63770607  0.64928142    -0.18200
C806        C  0.39087919  0.63952653  0.64699098     0.05800
C807        C  0.34864025  0.64233913  0.64390141     0.07700
C808        C  0.31272798  0.64502922  0.64189023    -0.19100
C809        C  0.92575242  0.96271778  0.64406044    -0.18200
C810        C  0.88768208  0.92561496  0.64677729     0.05800
C811        C  0.84387474  0.88119977  0.65057944     0.07700
C812        C  0.80687540  0.84335969  0.65254663    -0.19100
C813        C  0.31816579  0.33424786  0.65070397    -0.18200
C814        C  0.35630752  0.37021503  0.64941823     0.05800
C815        C  0.40027229  0.41353946  0.64671337     0.07700
C816        C  0.43738846  0.45096350  0.64484338    -0.19100
C817        C  0.94129656  0.16597899  0.64507117    -0.18200
C818        C  0.90616763  0.17007454  0.64216789     0.05800
C819        C  0.86393829  0.17281724  0.63856072     0.07700
C820        C  0.82674378  0.17294946  0.63670059    -0.19100
C821        C  0.43045441  0.14320426  0.64842441    -0.18200
C822        C  0.39312350  0.14314471  0.64673487     0.05800
C823        C  0.34935999  0.14301196  0.64420694     0.07700
C824        C  0.31233785  0.14358854  0.64251321    -0.19100
C825        C  0.61614222  0.58962197  0.86692047    -0.18200
C826        C  0.62498993  0.60154538  0.84016423     0.05800
C827        C  0.63283777  0.61744489  0.80843598     0.07700
C828        C  0.63665745  0.63033271  0.78130647    -0.19100
C829        C  0.56835755  0.88539844  0.98786593    -0.18200
C830        C  0.56663268  0.84657161  0.99088427     0.05800
C831        C  0.56315437  0.80013684  0.99538996     0.07700
C832        C  0.55941335  0.76049136  0.99816243    -0.19100
C833        C  0.53442403  0.24953594  0.99460828    -0.18200
C834        C  0.53525823  0.28759195  0.99243207     0.05800
C835        C  0.53766111  0.33298499  0.98937441     0.07700
C836        C  0.54046187  0.37171989  0.98778279    -0.19100
C837        C  0.62099958  0.09617232  0.86351743    -0.18200
C838        C  0.63081255  0.10801009  0.83693211     0.05800
C839        C  0.63970230  0.12379967  0.80535061     0.07700
C840        C  0.64353721  0.13590965  0.77830337    -0.19100
C841        C  0.85200260  0.38638345  0.98783452    -0.18200
C842        C  0.81393370  0.35129093  0.98661970     0.05800
C843        C  0.76989244  0.30917022  0.98553070     0.07700
C844        C  0.73301201  0.27214892  0.98516195    -0.19100
C845        C  0.24611281  0.75604788  0.99114629    -0.18200
C846        C  0.28414554  0.79201407  0.99138343     0.05800
C847        C  0.32856483  0.83425236  0.99187564     0.07700
C848        C  0.36604215  0.87054598  0.99246556    -0.19100
C849        C  0.11674983  0.59317059  0.86373943    -0.18200
C850        C  0.12808159  0.60582216  0.83723452     0.05800
C851        C  0.13935144  0.62305440  0.80569824     0.07700
C852        C  0.14508112  0.63691892  0.77856735    -0.19100
C853        C  0.86264171  0.87028015  0.99292783    -0.18200
C854        C  0.82482624  0.83360093  0.99322916     0.05800
C855        C  0.78017975  0.79060905  0.99393081     0.07700
C856        C  0.74218529  0.75403941  0.99434196    -0.19100
C857        C  0.34974357  0.38495826  0.98734336    -0.18200
C858        C  0.31153660  0.35034897  0.98581035     0.05800
C859        C  0.26730339  0.30880468  0.98434958     0.07700
C860        C  0.23032646  0.27219170  0.98361644    -0.19100
C861        C  0.06965104  0.88411569  0.99212371    -0.18200
C862        C  0.06899825  0.84575915  0.99522390     0.05800
C863        C  0.06658064  0.79993828  0.99922569     0.07700
C864        C  0.06329861  0.76075810  0.00124564    -0.19100
C865        C  0.03155397  0.25137162  0.98840130    -0.18200
C866        C  0.03282505  0.28988992  0.98567674     0.05800
C867        C  0.03590178  0.33573275  0.98247709     0.07700
C868        C  0.03940417  0.37470830  0.98118239    -0.19100
C869        C  0.11915035  0.09144768  0.86423577    -0.18200
C870        C  0.12860041  0.10330907  0.83759337     0.05800
C871        C  0.13726872  0.11981064  0.80594308     0.07700
C872        C  0.14152333  0.13340692  0.77882907    -0.19100
C873        C  0.58604640  0.60913301  0.52510479    -0.18200
C874        C  0.57670954  0.60345152  0.50098646     0.05800
C875        C  0.56478768  0.59678191  0.47277549     0.07700
C876        C  0.55478666  0.59035817  0.44889003    -0.19100
C877        C  0.48218202  0.53826220  0.12096738    -0.18200
C878        C  0.47495443  0.52850900  0.14761407     0.05800
C879        C  0.47037837  0.51788400  0.17902375     0.07700
C880        C  0.47005923  0.51194345  0.20554749    -0.19100
C881        C  0.58872308  0.12007434  0.52031395    -0.18200
C882        C  0.57817728  0.11245307  0.49691681     0.05800
C883        C  0.56472698  0.10235048  0.46993697     0.07700
C884        C  0.55383195  0.09285601  0.44708788    -0.19100
C885        C  0.51499240  0.73715413  0.32780747    -0.18200
C886        C  0.51343935  0.77396900  0.32565510     0.05800
C887        C  0.51089257  0.81671130  0.32298435     0.07700
C888        C  0.50858162  0.85273749  0.32182388    -0.19100
C889        C  0.49259938  0.34028624  0.33102162    -0.18200
C890        C  0.49420434  0.30377616  0.33254667     0.05800
C891        C  0.49779118  0.26202124  0.33430528     0.07700
C892        C  0.50150834  0.22700613  0.33504010    -0.19100
C893        C  0.48839599  0.04032558  0.11912909    -0.18200
C894        C  0.48169520  0.03217773  0.14557465     0.05800
C895        C  0.47765290  0.02367587  0.17669155     0.07700
C896        C  0.47757476  0.01911046  0.20298404    -0.19100
C897        C  0.04093855  0.58828257  0.45025734    -0.18200
C898        C  0.05086313  0.59465803  0.47409269     0.05800
C899        C  0.06401838  0.60046262  0.50226853     0.07700
C900        C  0.07497492  0.60521668  0.52638816    -0.19100
C901        C  0.80544633  0.52280434  0.33453998    -0.18200
C902        C  0.76679910  0.51963709  0.33393583     0.05800
C903        C  0.72233271  0.51771068  0.33238767     0.07700
C904        C  0.68538026  0.51821059  0.33125695    -0.19100
C905        C  0.19111670  0.52725979  0.33791760    -0.18200
C906        C  0.22970516  0.53016550  0.33824155     0.05800
C907        C  0.27554787  0.53513918  0.33816460     0.07700
C908        C  0.31450341  0.53912516  0.33733826    -0.19100
C909        C  0.99273281  0.53702459  0.12198633    -0.18200
C910        C  0.98682925  0.52759111  0.14875993     0.05800
C911        C  0.98275400  0.51750800  0.18020339     0.07700
C912        C  0.98146506  0.51158940  0.20675115    -0.19100
C913        C  0.07420991  0.10107862  0.52698203    -0.18200
C914        C  0.06222089  0.09185962  0.50407298     0.05800
C915        C  0.04811474  0.08130020  0.47716589     0.07700
C916        C  0.03776923  0.07281953  0.45391887    -0.19100
C917        C  0.00149664  0.84848754  0.31907191    -0.18200
C918        C  0.00119959  0.81102309  0.32054438     0.05800
C919        C  0.00048432  0.76631103  0.32420679     0.07700
C920        C  0.00060862  0.72847330  0.32726700    -0.19100
C921        C  0.99979376  0.33982493  0.33493385    -0.18200
C922        C  0.00068741  0.30268486  0.33700144     0.05800
C923        C  0.00175605  0.25917822  0.33957012     0.07700
C924        C  0.00299213  0.22261089  0.34064019    -0.19100
C925        C  0.81227381  0.03315071  0.33107215    -0.18200
C926        C  0.77428464  0.03130476  0.33037631     0.05800
C927        C  0.73045224  0.03047598  0.32897427     0.07700
C928        C  0.69366441  0.03112582  0.32813594    -0.19100
C929        C  0.19117232  0.02452341  0.33547385    -0.18200
C930        C  0.22906663  0.02597420  0.33629615     0.05800
C931        C  0.27411080  0.02923049  0.33687607     0.07700
C932        C  0.31273292  0.03249555  0.33643296    -0.19100
C933        C  0.98940349  0.04446262  0.11759317    -0.18200
C934        C  0.98635552  0.03800421  0.14407412     0.05800
C935        C  0.98633367  0.03123694  0.17507504     0.07700
C936        C  0.98768862  0.02689566  0.20134502    -0.19100
loop_ 
_geom_bond_atom_site_label_1 
_geom_bond_atom_site_label_2 
_geom_bond_distance 
_geom_bond_site_symmetry_2 
_ccdc_geom_bond_type 
Zr1           O2   2.438       .  S
Zr1           O3   2.427       .  S
Zr1           O4   2.447       .  S
Zr1           O7   2.428       .  S
Zr1           O9   2.379   1_655  S
Zr1          O10   2.385       .  S
Zr1          O11   2.400   1_545  S
Zr1          O12   2.400   1_545  S
O2           H58   0.990       .  S
O2           H66   0.990   1_545  S
O3           C23   1.282   1_655  A
O4           C25   1.286   1_655  A
O5          Zr15   2.420       .  S
O5           C24   1.281       .  A
O6          Zr14   2.422       .  S
O6           C25   1.281       .  A
O7           C24   1.283       .  A
O8          Zr16   2.425       .  S
O8           C23   1.281       .  A
O9          Zr14   2.389       .  S
O9          Zr16   2.373       .  S
O10         Zr15   2.385       .  S
O10         Zr16   2.374   1_655  S
O10          H45   0.966       .  S
O11         Zr14   2.394   1_665  S
O11         Zr31   2.397       .  S
O11          H48   0.966       .  S
O12         Zr15   2.390   1_565  S
O12         Zr31   2.391       .  S
Zr13         O38   2.445       .  S
Zr13         O32   2.429   1_545  S
Zr13         O40   2.443       .  S
Zr13         O28   2.439       .  S
Zr13         O19   2.399       .  S
Zr13         O20   2.405       .  S
Zr13         O21   2.379   1_545  S
Zr13         O22   2.382   1_445  S
Zr14         O33   2.437   1_545  S
Zr14         O26   2.434       .  S
Zr14         O27   2.419       .  S
Zr14         O20   2.398       .  S
Zr14         O21   2.384   1_545  S
Zr15         O17   2.435   1_545  S
Zr15         O39   2.438       .  S
Zr15         O41   2.419       .  S
Zr15         O19   2.391   1_655  S
Zr15         O22   2.384   1_545  S
Zr16         O42   2.436       .  S
Zr16         O43   2.436       .  S
Zr16         O18   2.436       .  S
Zr16         O19   2.394       .  S
Zr16         O20   2.397       .  S
O17          H54   0.990       .  S
O18          H49   0.990       .  S
O18          H63   0.990       .  S
O20          H46   0.966       .  S
O21         Zr31   2.371   1_455  S
O22         Zr31   2.380       .  S
O22          H47   0.966       .  S
C23         C924   1.431       .  S
C24         C925   1.428       .  S
C25         C916   1.438       .  S
O26          H62   0.990       .  S
O27          C29   1.281       .  A
O28          C29   1.284       .  A
C29         C929   1.432       .  S
O30         Zr31   2.437       .  S
O30          H59   0.990       .  S
Zr31         O34   2.436       .  S
Zr31         O35   2.439       .  S
Zr31         O36   2.416       .  S
O32          C37   1.282       .  A
O33          H50   0.990       .  S
O33          H65   0.990       .  S
O34          H51   0.990       .  S
O35          H55   0.990       .  S
O35          H64   0.990       .  S
O36          C37   1.279   1_655  A
C37         C917   1.428       .  S
O38          H57   0.990       .  S
O38          H61   0.990       .  S
O39          H53   0.990       .  S
O39          H60   0.990       .  S
O40          C44   1.285   1_455  A
O41          C44   1.281       .  A
O42          H52   0.990       .  S
O43          H56   0.990       .  S
C44         C936   1.435       .  S
Zr67         O68   2.440       .  S
Zr67         O69   2.433       .  S
Zr67         O70   2.450       .  S
Zr67         O73   2.433       .  S
Zr67         O75   2.381   1_655  S
Zr67         O76   2.385       .  S
Zr67         O77   2.403       .  S
Zr67         O78   2.403       .  S
O68         H124   0.990       .  S
O68         H132   0.990       .  S
O69          C89   1.283   1_655  A
O70          C91   1.285   1_655  A
O71         Zr81   2.423       .  S
O71          C90   1.281       .  A
O72         Zr80   2.417       .  S
O72          C91   1.280       .  A
O73          C90   1.284       .  A
O74         Zr82   2.414       .  S
O74          C89   1.279       .  A
O75         Zr80   2.391       .  S
O75         Zr82   2.376       .  S
O76         Zr81   2.389       .  S
O76         Zr82   2.378   1_655  S
O76         H111   0.966       .  S
O77         Zr80   2.398   1_655  S
O77         Zr97   2.398       .  S
O77         H114   0.966       .  S
O78         Zr81   2.391       .  S
O78         Zr97   2.392       .  S
Zr79        O104   2.449       .  S
Zr79         O98   2.428       .  S
Zr79        O106   2.448       .  S
Zr79         O94   2.439       .  S
Zr79         O85   2.395       .  S
Zr79         O86   2.404       .  S
Zr79         O87   2.381       .  S
Zr79         O88   2.386   1_455  S
Zr80         O99   2.436       .  S
Zr80         O92   2.434       .  S
Zr80         O93   2.424       .  S
Zr80         O86   2.393       .  S
Zr80         O87   2.382       .  S
Zr81         O83   2.435       .  S
Zr81        O105   2.438       .  S
Zr81        O107   2.426       .  S
Zr81         O85   2.389   1_655  S
Zr81         O88   2.385       .  S
Zr82        O108   2.435       .  S
Zr82        O109   2.434       .  S
Zr82         O84   2.438       .  S
Zr82         O85   2.388       .  S
Zr82         O86   2.393       .  S
O83         H120   0.990       .  S
O84         H115   0.990       .  S
O84         H129   0.990       .  S
O86         H112   0.966       .  S
O87         Zr97   2.373   1_455  S
O88         Zr97   2.385       .  S
O88         H113   0.966       .  S
C89         C920   1.428       .  S
C90         C901   1.432       .  S
C91         C897   1.437       .  S
O92         H128   0.990       .  S
O93          C95   1.282       .  A
O94          C95   1.284       .  A
C95         C905   1.436       .  S
O96         Zr97   2.441       .  S
O96         H125   0.991       .  S
Zr97        O100   2.437       .  S
Zr97        O101   2.440       .  S
Zr97        O102   2.421       .  S
O98         C103   1.283   1_455  A
O99         H116   0.990       .  S
O99         H131   0.990       .  S
O100        H117   0.990       .  S
O101        H121   0.990       .  S
O101        H130   0.990       .  S
O102        C103   1.281       .  A
C103        C921   1.430       .  S
O104        H123   0.990       .  S
O104        H127   0.990       .  S
O105        H119   0.990       .  S
O105        H126   0.990       .  S
O106        C110   1.286   1_455  A
O107        C110   1.282       .  A
O108        H118   0.990       .  S
O109        H122   0.990       .  S
C110        C912   1.441       .  S
Zr133       O134   2.438       .  S
Zr133       O135   2.423       .  S
Zr133       O136   2.441       .  S
Zr133       O139   2.431       .  S
Zr133       O141   2.377       .  S
Zr133       O142   2.382       .  S
Zr133       O143   2.400       .  S
Zr133       O144   2.399   1_545  S
O134        H190   0.990       .  S
O134        H198   0.990   1_545  S
O135        C155   1.281       .  A
O136        C157   1.284       .  A
O137       Zr147   2.426       .  S
O137        C156   1.282       .  A
O138       Zr146   2.416       .  S
O138        C157   1.280       .  A
O139        C156   1.284       .  A
O140       Zr148   2.423       .  S
O140        C155   1.281       .  A
O141       Zr146   2.385       .  S
O141       Zr148   2.371       .  S
O142       Zr147   2.384       .  S
O142       Zr148   2.376       .  S
O142        H177   0.966       .  S
O143       Zr146   2.394       .  S
O143       Zr163   2.397   1_545  S
O143        H180   0.966   1_545  S
O144       Zr147   2.391   1_565  S
O144       Zr163   2.395       .  S
Zr145       O170   2.444       .  S
Zr145       O164   2.428   1_545  S
Zr145       O172   2.436       .  S
Zr145       O160   2.428       .  S
Zr145       O151   2.395       .  S
Zr145       O152   2.404       .  S
Zr145       O153   2.378   1_545  S
Zr145       O154   2.382   1_545  S
Zr146       O165   2.438   1_545  S
Zr146       O158   2.436       .  S
Zr146       O159   2.419       .  S
Zr146       O152   2.395       .  S
Zr146       O153   2.382   1_545  S
Zr147       O149   2.433   1_545  S
Zr147       O171   2.439       .  S
Zr147       O173   2.422       .  S
Zr147       O151   2.390       .  S
Zr147       O154   2.386   1_545  S
Zr148       O174   2.435       .  S
Zr148       O175   2.436       .  S
Zr148       O150   2.438       .  S
Zr148       O151   2.393       .  S
Zr148       O152   2.396       .  S
O149        H186   0.990       .  S
O150        H181   0.990       .  S
O150        H195   0.990       .  S
O152        H178   0.966       .  S
O153       Zr163   2.370       .  S
O154       Zr163   2.382       .  S
O154        H179   0.966       .  S
C155        C892   1.428       .  S
C156        C932   1.433       .  S
C157        C884   1.433       .  S
O158        H194   0.990       .  S
O159        C161   1.281       .  A
O160        C161   1.282       .  A
C161        C928   1.428       .  S
O162       Zr163   2.439       .  S
O162        H191   0.990       .  S
Zr163       O166   2.438       .  S
Zr163       O167   2.438       .  S
Zr163       O168   2.422       .  S
O164        C169   1.282       .  A
O165        H182   0.990   1_565  S
O165        H197   0.990       .  S
O166        H183   0.990       .  S
O167        H187   0.990       .  S
O167        H196   0.990       .  S
O168        C169   1.281       .  A
C169        C888   1.431       .  S
O170        H189   0.990       .  S
O170        H193   0.990       .  S
O171        H185   0.990       .  S
O171        H192   0.990       .  S
O172        C176   1.284       .  A
O173        C176   1.281       .  A
O174        H184   0.990       .  S
O175        H188   0.990       .  S
C176        C896   1.434       .  S
Zr199       O200   2.440       .  S
Zr199       O201   2.429       .  S
Zr199       O202   2.453       .  S
Zr199       O205   2.437       .  S
Zr199       O207   2.383       .  S
Zr199       O208   2.384       .  S
Zr199       O209   2.402       .  S
Zr199       O210   2.405       .  S
O200        H256   0.990       .  S
O200        H264   0.990       .  S
O201        C221   1.282       .  A
O202        C223   1.286       .  A
O203       Zr213   2.426       .  S
O203        C222   1.282       .  A
O204       Zr212   2.426       .  S
O204        C223   1.282       .  A
O205        C222   1.285       .  A
O206       Zr214   2.420       .  S
O206        C221   1.280       .  A
O207       Zr212   2.390       .  S
O207       Zr214   2.380       .  S
O208       Zr213   2.387       .  S
O208       Zr214   2.375       .  S
O208        H243   0.966       .  S
O209       Zr212   2.394       .  S
O209       Zr229   2.398       .  S
O209        H246   0.966       .  S
O210       Zr213   2.393       .  S
O210       Zr229   2.394       .  S
Zr211       O236   2.446       .  S
Zr211       O230   2.425       .  S
Zr211       O238   2.444       .  S
Zr211       O226   2.434       .  S
Zr211       O217   2.393       .  S
Zr211       O218   2.404       .  S
Zr211       O219   2.377       .  S
Zr211       O220   2.383       .  S
Zr212       O231   2.435       .  S
Zr212       O224   2.434       .  S
Zr212       O225   2.419       .  S
Zr212       O218   2.395       .  S
Zr212       O219   2.381       .  S
Zr213       O215   2.435       .  S
Zr213       O237   2.438       .  S
Zr213       O239   2.425       .  S
Zr213       O217   2.388       .  S
Zr213       O220   2.386       .  S
Zr214       O240   2.434       .  S
Zr214       O241   2.436       .  S
Zr214       O216   2.437       .  S
Zr214       O217   2.388       .  S
Zr214       O218   2.395       .  S
O215        H252   0.990       .  S
O216        H247   0.990       .  S
O216        H261   0.990       .  S
O218        H244   0.966       .  S
O219       Zr229   2.368       .  S
O220       Zr229   2.382       .  S
O220        H245   0.966       .  S
C221        C885   1.430       .  S
C222        C908   1.436       .  S
C223        C876   1.443       .  S
O224        H260   0.990       .  S
O225        C227   1.281       .  A
O226        C227   1.284       .  A
C227        C904   1.431       .  S
O228       Zr229   2.438       .  S
O228        H257   0.990       .  S
Zr229       O232   2.437       .  S
Zr229       O233   2.438       .  S
Zr229       O234   2.420       .  S
O230        C235   1.282       .  A
O231        H248   0.990       .  S
O231        H263   0.990       .  S
O232        H249   0.990       .  S
O233        H253   0.990       .  S
O233        H262   0.990       .  S
O234        C235   1.280       .  A
C235        C889   1.428       .  S
O236        H255   0.990       .  S
O236        H259   0.990       .  S
O237        H251   0.990       .  S
O237        H258   0.990       .  S
O238        C242   1.285       .  A
O239        C242   1.282       .  A
O240        H250   0.990       .  S
O241        H254   0.990       .  S
C242        C880   1.437       .  S
Zr265       O266   2.439   1_445  S
Zr265       O267   2.440   1_545  S
Zr265       O268   2.453       .  S
Zr265       O271   2.447   1_445  S
Zr265       O273   2.385       .  S
Zr265       O274   2.382   1_546  S
Zr265       O275   2.410       .  S
Zr265       O276   2.405   1_455  S
O266        H322   0.990       .  S
O266        H330   0.990   1_565  S
O267        C287   1.284       .  A
O268        C289   1.286       .  A
O269       Zr279   2.435       .  S
O269        C288   1.284   1_554  A
O270       Zr278   2.420       .  S
O270        C289   1.281       .  A
O271        C288   1.286       .  A
O272       Zr280   2.419   1_565  S
O272        C287   1.279   1_554  A
O273       Zr278   2.400       .  S
O273       Zr280   2.380   1_556  S
O274       Zr279   2.391   1_455  S
O274       Zr280   2.378   1_565  S
O274        H309   0.966       .  S
O275       Zr278   2.401       .  S
O275       Zr295   2.392   1_455  S
O275        H312   0.965       .  S
O276       Zr279   2.389   1_546  S
O276       Zr295   2.396       .  S
Zr277       O302   2.447       .  S
Zr277       O296   2.432       .  S
Zr277       O304   2.429       .  S
Zr277       O292   2.437       .  S
Zr277       O283   2.399       .  S
Zr277       O284   2.401       .  S
Zr277       O285   2.373   1_554  S
Zr277       O286   2.387   1_455  S
Zr278       O297   2.436       .  S
Zr278       O290   2.434       .  S
Zr278       O291   2.438       .  S
Zr278       O284   2.390   1_556  S
Zr278       O285   2.381       .  S
Zr279       O281   2.435       .  S
Zr279       O303   2.437       .  S
Zr279       O305   2.432   1_565  S
Zr279       O283   2.390   1_665  S
Zr279       O286   2.391   1_565  S
Zr280       O306   2.436   1_545  S
Zr280       O307   2.436       .  S
Zr280       O282   2.437       .  S
Zr280       O283   2.392       .  S
Zr280       O284   2.395       .  S
O281        H318   0.990       .  S
O282        H313   0.990       .  S
O282        H327   0.990   1_554  S
O284        H310   0.966       .  S
O285       Zr295   2.373   1_455  S
O286       Zr295   2.382   1_554  S
O286        H311   0.966       .  S
C287        C861   1.435       .  S
C288        C853   1.445       .  S
C289        C869   1.436       .  S
O290        H326   0.990       .  S
O291        C293   1.285       .  A
O292        C293   1.284   1_554  A
C293        C860   1.442       .  S
O294       Zr295   2.440       .  S
O294        H323   0.990       .  S
Zr295       O298   2.438   1_655  S
Zr295       O299   2.439       .  S
Zr295       O300   2.423   1_655  S
O296        C301   1.283   1_554  A
O297        H314   0.990       .  S
O297        H329   0.990       .  S
O298        H315   0.990       .  S
O299        H319   0.990       .  S
O299        H328   0.989       .  S
O300        C301   1.280       .  A
C301        C865   1.434       .  S
O302        H321   0.990       .  S
O302        H325   0.990       .  S
O303        H317   0.990       .  S
O303        H324   0.990       .  S
O304        C308   1.282   1_455  A
O305        C308   1.283       .  A
O306        H316   0.990       .  S
O307        H320   0.990       .  S
C308        C933   1.434       .  S
Zr331       O332   2.440   1_455  S
Zr331       O333   2.435       .  S
Zr331       O334   2.450       .  S
Zr331       O337   2.439   1_455  S
Zr331       O339   2.385       .  S
Zr331       O340   2.383   1_556  S
Zr331       O341   2.406       .  S
Zr331       O342   2.405   1_455  S
O332        H388   0.990       .  S
O332        H396   0.990       .  S
O333        C353   1.283       .  A
O334        C355   1.286       .  A
O335       Zr345   2.441       .  S
O335        C354   1.285   1_554  A
O336       Zr344   2.424       .  S
O336        C355   1.281       .  A
O337        C354   1.285       .  A
O338       Zr346   2.422       .  S
O338        C353   1.280   1_554  A
O339       Zr344   2.395       .  S
O339       Zr346   2.378   1_556  S
O340       Zr345   2.389   1_455  S
O340       Zr346   2.375       .  S
O340        H375   0.966   1_455  S
O341       Zr344   2.401       .  S
O341       Zr361   2.394       .  S
O341        H378   0.966       .  S
O342       Zr345   2.390   1_556  S
O342       Zr361   2.395   1_655  S
Zr343       O368   2.446       .  S
Zr343       O362   2.436       .  S
Zr343       O370   2.441       .  S
Zr343       O358   2.443       .  S
Zr343       O349   2.400       .  S
Zr343       O350   2.405       .  S
Zr343       O351   2.376   1_554  S
Zr343       O352   2.387       .  S
Zr344       O363   2.436       .  S
Zr344       O356   2.435       .  S
Zr344       O357   2.436       .  S
Zr344       O350   2.392   1_556  S
Zr344       O351   2.383       .  S
Zr345       O347   2.436       .  S
Zr345       O369   2.438       .  S
Zr345       O371   2.435       .  S
Zr345       O349   2.393   1_655  S
Zr345       O352   2.391   1_655  S
Zr346       O372   2.436       .  S
Zr346       O373   2.436       .  S
Zr346       O348   2.436       .  S
Zr346       O349   2.392       .  S
Zr346       O350   2.397       .  S
O347        H384   0.990       .  S
O348        H379   0.990       .  S
O348        H393   0.990   1_554  S
O350        H376   0.966       .  S
O351       Zr361   2.372       .  S
O352       Zr361   2.382   1_554  S
O352        H377   0.966   1_455  S
C353        C868   1.434       .  S
C354        C841   1.444       .  S
C355        C849   1.439       .  S
O356        H392   0.990       .  S
O357        C359   1.284       .  A
O358        C359   1.285   1_554  A
C359        C845   1.443       .  S
O360       Zr361   2.440   1_655  S
O360        H389   0.990       .  S
Zr361       O364   2.437       .  S
Zr361       O365   2.440   1_455  S
Zr361       O366   2.419       .  S
O362        C367   1.284       .  A
O363        H380   0.990       .  S
O363        H395   0.990       .  S
O364        H381   0.990       .  S
O365        H385   0.990       .  S
O365        H394   0.989       .  S
O366        C367   1.280   1_556  A
C367        C864   1.434       .  S
O368        H387   0.990       .  S
O368        H391   0.990       .  S
O369        H383   0.990       .  S
O369        H390   0.990       .  S
O370        C374   1.285       .  A
O371        C374   1.284   1_655  A
O372        H382   0.990       .  S
O373        H386   0.990       .  S
C374        C909   1.441   1_455  S
Zr397       O398   2.439   1_545  S
Zr397       O399   2.437   1_545  S
Zr397       O400   2.449       .  S
Zr397       O403   2.439   1_545  S
Zr397       O405   2.384       .  S
Zr397       O406   2.382   1_546  S
Zr397       O407   2.406       .  S
Zr397       O408   2.404       .  S
O398        H454   0.990       .  S
O398        H462   0.990   1_565  S
O399        C419   1.283       .  A
O400        C421   1.286       .  A
O401       Zr411   2.440       .  S
O401        C420   1.285   1_554  A
O402       Zr410   2.418       .  S
O402        C421   1.280       .  A
O403        C420   1.285       .  A
O404       Zr412   2.420   1_565  S
O404        C419   1.280   1_554  A
O405       Zr410   2.399       .  S
O405       Zr412   2.380   1_556  S
O406       Zr411   2.387       .  S
O406       Zr412   2.375   1_565  S
O406        H441   0.966       .  S
O407       Zr410   2.400       .  S
O407       Zr427   2.394       .  S
O407        H444   0.966       .  S
O408       Zr411   2.388   1_546  S
O408       Zr427   2.395       .  S
Zr409       O434   2.446       .  S
Zr409       O428   2.431       .  S
Zr409       O436   2.436       .  S
Zr409       O424   2.442       .  S
Zr409       O415   2.399       .  S
Zr409       O416   2.404       .  S
Zr409       O417   2.374   1_554  S
Zr409       O418   2.386       .  S
Zr410       O429   2.437       .  S
Zr410       O422   2.433       .  S
Zr410       O423   2.436       .  S
Zr410       O416   2.394   1_556  S
Zr410       O417   2.380       .  S
Zr411       O413   2.434       .  S
Zr411       O435   2.438       .  S
Zr411       O437   2.426   1_565  S
Zr411       O415   2.393   1_565  S
Zr411       O418   2.390   1_565  S
Zr412       O438   2.435   1_545  S
Zr412       O439   2.436       .  S
Zr412       O414   2.437       .  S
Zr412       O415   2.390       .  S
Zr412       O416   2.398       .  S
O413        H450   0.990       .  S
O414        H445   0.990       .  S
O414        H459   0.990   1_554  S
O416        H442   0.966       .  S
O417       Zr427   2.373       .  S
O418       Zr427   2.380   1_554  S
O418        H443   0.966       .  S
C419        C829   1.434       .  S
C420        C848   1.444       .  S
C421        C837   1.436       .  S
O422        H458   0.990       .  S
O423        C425   1.284       .  A
O424        C425   1.285   1_554  A
C425        C844   1.443       .  S
O426       Zr427   2.439       .  S
O426        H455   0.990       .  S
Zr427       O430   2.437       .  S
Zr427       O431   2.440       .  S
Zr427       O432   2.419       .  S
O428        C433   1.283   1_554  A
O429        H446   0.990       .  S
O429        H461   0.990       .  S
O430        H447   0.990       .  S
O431        H451   0.990       .  S
O431        H460   0.989       .  S
O432        C433   1.280       .  A
C433        C833   1.431       .  S
O434        H453   0.990       .  S
O434        H457   0.990       .  S
O435        H449   0.990       .  S
O435        H456   0.990       .  S
O436        C440   1.284       .  A
O437        C440   1.282       .  A
O438        H448   0.990       .  S
O439        H452   0.990       .  S
C440        C893   1.434       .  S
Zr463       O464   2.441       .  S
Zr463       O465   2.434       .  S
Zr463       O466   2.447       .  S
Zr463       O469   2.439       .  S
Zr463       O471   2.385       .  S
Zr463       O472   2.384   1_556  S
Zr463       O473   2.407       .  S
Zr463       O474   2.404       .  S
O464        H520   0.990       .  S
O464        H528   0.990       .  S
O465        C485   1.282       .  A
O466        C487   1.285       .  A
O467       Zr477   2.440       .  S
O467        C486   1.284   1_554  A
O468       Zr476   2.432       .  S
O468        C487   1.282       .  A
O469        C486   1.284       .  A
O470       Zr478   2.414       .  S
O470        C485   1.279   1_554  A
O471       Zr476   2.396       .  S
O471       Zr478   2.381   1_556  S
O472       Zr477   2.389       .  S
O472       Zr478   2.376       .  S
O472        H507   0.966       .  S
O473       Zr476   2.404       .  S
O473       Zr493   2.390       .  S
O473        H510   0.965       .  S
O474       Zr477   2.388   1_556  S
O474       Zr493   2.395       .  S
Zr475       O500   2.446       .  S
Zr475       O494   2.435       .  S
Zr475       O502   2.439       .  S
Zr475       O490   2.446       .  S
Zr475       O481   2.401       .  S
Zr475       O482   2.402       .  S
Zr475       O483   2.377   1_554  S
Zr475       O484   2.387       .  S
Zr476       O495   2.437       .  S
Zr476       O488   2.436       .  S
Zr476       O489   2.438       .  S
Zr476       O482   2.392   1_556  S
Zr476       O483   2.386       .  S
Zr477       O479   2.434       .  S
Zr477       O501   2.438       .  S
Zr477       O503   2.427       .  S
Zr477       O481   2.395       .  S
Zr477       O484   2.389       .  S
Zr478       O504   2.436       .  S
Zr478       O505   2.436       .  S
Zr478       O480   2.436       .  S
Zr478       O481   2.389       .  S
Zr478       O482   2.397       .  S
O479        H516   0.990       .  S
O480        H511   0.990       .  S
O480        H525   0.990   1_554  S
O482        H508   0.966       .  S
O483       Zr493   2.373       .  S
O484       Zr493   2.379   1_554  S
O484        H509   0.966       .  S
C485        C836   1.431       .  S
C486        C857   1.443       .  S
C487        C825   1.439       .  S
O488        H524   0.990       .  S
O489        C491   1.284       .  A
O490        C491   1.286   1_554  A
C491        C856   1.446       .  S
O492       Zr493   2.440       .  S
O492        H521   0.990       .  S
Zr493       O496   2.438       .  S
Zr493       O497   2.441       .  S
Zr493       O498   2.418       .  S
O494        C499   1.284   1_554  A
O495        H512   0.990       .  S
O495        H527   0.990       .  S
O496        H513   0.990       .  S
O497        H517   0.990       .  S
O497        H526   0.989       .  S
O498        C499   1.280       .  A
C499        C832   1.433       .  S
O500        H519   0.990       .  S
O500        H523   0.990       .  S
O501        H515   0.990       .  S
O501        H522   0.990       .  S
O502        C506   1.285       .  A
O503        C506   1.283       .  A
O504        H514   0.990       .  S
O505        H518   0.990       .  S
C506        C877   1.437       .  S
Zr529       O530   2.440       .  S
Zr529       O531   2.427   1_455  S
Zr529       O532   2.425       .  S
Zr529       O535   2.417   1_455  S
Zr529       O537   2.378       .  S
Zr529       O538   2.382       .  S
Zr529       O539   2.398       .  S
Zr529       O540   2.397       .  S
O530        H586   0.990   1_455  S
O530        H594   0.990       .  S
O531        C551   1.282       .  A
O532        C553   1.281       .  A
O533       Zr543   2.439       .  S
O533        C552   1.284   1_455  A
O534       Zr542   2.441       .  S
O534        C553   1.285       .  A
O535        C552   1.281       .  A
O536       Zr544   2.411   1_665  S
O536        C551   1.278   1_565  A
O537       Zr542   2.388       .  S
O537       Zr544   2.373       .  S
O538       Zr543   2.389       .  S
O538       Zr544   2.380       .  S
O538        H573   0.966       .  S
O539       Zr542   2.397       .  S
O539       Zr559   2.396       .  S
O539        H576   0.966       .  S
O540       Zr543   2.388       .  S
O540       Zr559   2.388       .  S
Zr541       O566   2.442       .  S
Zr541       O560   2.423       .  S
Zr541       O568   2.441       .  S
Zr541       O556   2.433       .  S
Zr541       O547   2.389       .  S
Zr541       O548   2.407       .  S
Zr541       O549   2.382       .  S
Zr541       O550   2.387       .  S
Zr542       O561   2.438       .  S
Zr542       O554   2.433       .  S
Zr542       O555   2.434       .  S
Zr542       O548   2.406       .  S
Zr542       O549   2.392       .  S
Zr543       O545   2.435       .  S
Zr543       O567   2.438       .  S
Zr543       O569   2.426       .  S
Zr543       O547   2.390       .  S
Zr543       O550   2.392       .  S
Zr544       O570   2.436   1_545  S
Zr544       O571   2.435   1_545  S
Zr544       O546   2.436   1_545  S
Zr544       O547   2.380       .  S
Zr544       O548   2.397       .  S
O545        H582   0.990       .  S
O546        H577   0.990       .  S
O546        H591   0.990       .  S
O548        H574   0.966       .  S
O549       Zr559   2.378       .  S
O550       Zr559   2.390       .  S
O550        H575   0.966       .  S
C551        C809   1.426   1_545  S
C552        C817   1.433       .  S
C553        C913   1.437       .  S
O554        H590   0.990       .  S
O555        C557   1.283       .  A
O556        C557   1.281       .  A
C557        C824   1.436       .  S
O558       Zr559   2.440       .  S
O558        H587   0.990       .  S
Zr559       O562   2.438       .  S
Zr559       O563   2.441       .  S
Zr559       O564   2.403       .  S
O560        C565   1.279       .  A
O561        H578   0.990       .  S
O561        H593   0.990       .  S
O562        H579   0.990       .  S
O563        H583   0.990       .  S
O563        H592   0.990       .  S
O564        C565   1.277       .  A
C565        C813   1.419       .  S
O566        H585   0.991       .  S
O566        H589   0.990       .  S
O567        H581   0.990       .  S
O567        H588   0.990   1_455  S
O568        C572   1.284       .  A
O569        C572   1.282       .  A
O570        H580   0.990       .  S
O571        H584   0.990   1_565  S
C572        C872   1.436       .  S
Zr595       O596   2.440       .  S
Zr595       O597   2.429   1_455  S
Zr595       O598   2.430       .  S
Zr595       O601   2.415   1_455  S
Zr595       O603   2.377       .  S
Zr595       O604   2.381       .  S
Zr595       O605   2.399       .  S
Zr595       O606   2.400       .  S
O596        H652   0.990   1_455  S
O596        H660   0.990       .  S
O597        C617   1.282       .  A
O598        C619   1.281       .  A
O599       Zr609   2.437       .  S
O599        C618   1.283   1_455  A
O600       Zr608   2.441       .  S
O600        C619   1.285       .  A
O601        C618   1.280       .  A
O602       Zr610   2.410       .  S
O602        C617   1.278   1_455  A
O603       Zr608   2.391       .  S
O603       Zr610   2.377       .  S
O604       Zr609   2.388       .  S
O604       Zr610   2.381       .  S
O604        H639   0.966       .  S
O605       Zr608   2.398       .  S
O605       Zr625   2.394       .  S
O605        H642   0.966       .  S
O606       Zr609   2.389       .  S
O606       Zr625   2.393       .  S
Zr607       O632   2.441       .  S
Zr607       O626   2.429       .  S
Zr607       O634   2.455       .  S
Zr607       O622   2.439       .  S
Zr607       O613   2.389       .  S
Zr607       O614   2.411       .  S
Zr607       O615   2.384       .  S
Zr607       O616   2.389       .  S
Zr608       O627   2.435       .  S
Zr608       O620   2.435       .  S
Zr608       O621   2.430       .  S
Zr608       O614   2.406       .  S
Zr608       O615   2.396       .  S
Zr609       O611   2.435       .  S
Zr609       O633   2.440       .  S
Zr609       O635   2.425       .  S
Zr609       O613   2.389       .  S
Zr609       O616   2.395       .  S
Zr610       O636   2.436       .  S
Zr610       O637   2.436       .  S
Zr610       O612   2.436       .  S
Zr610       O613   2.379       .  S
Zr610       O614   2.388       .  S
O611        H648   0.990       .  S
O612        H643   0.990       .  S
O612        H657   0.990       .  S
O614        H640   0.965       .  S
O615       Zr625   2.378       .  S
O616       Zr625   2.391       .  S
O616        H641   0.966       .  S
C617        C796   1.426       .  S
C618        C801   1.432       .  S
C619        C900   1.438       .  S
O620        H656   0.990       .  S
O621        C623   1.283       .  A
O622        C623   1.283       .  A
C623        C808   1.435       .  S
O624       Zr625   2.440       .  S
O624        H653   0.991       .  S
Zr625       O628   2.438       .  S
Zr625       O629   2.439       .  S
Zr625       O630   2.404       .  S
O626        C631   1.280       .  A
O627        H644   0.990       .  S
O627        H659   0.990       .  S
O628        H645   0.990       .  S
O629        H649   0.990       .  S
O629        H658   0.990       .  S
O630        C631   1.276       .  A
C631        C797   1.425       .  S
O632        H651   0.991       .  S
O632        H655   0.990       .  S
O633        H647   0.990       .  S
O633        H654   0.990   1_455  S
O634        C638   1.287       .  A
O635        C638   1.281       .  A
O636        H646   0.990       .  S
O637        H650   0.990       .  S
C638        C852   1.439       .  S
Zr661       O662   2.440       .  S
Zr661       O663   2.427       .  S
Zr661       O664   2.422       .  S
Zr661       O667   2.421       .  S
Zr661       O669   2.379       .  S
Zr661       O670   2.379       .  S
Zr661       O671   2.400       .  S
Zr661       O672   2.396       .  S
O662        H718   0.990       .  S
O662        H726   0.990       .  S
O663        C683   1.282       .  A
O664        C685   1.281       .  A
O665       Zr675   2.441       .  S
O665        C684   1.285       .  A
O666       Zr674   2.434       .  S
O666        C685   1.283       .  A
O667        C684   1.282       .  A
O668       Zr676   2.414   1_565  S
O668        C683   1.279   1_565  A
O669       Zr674   2.390       .  S
O669       Zr676   2.372       .  S
O670       Zr675   2.384       .  S
O670       Zr676   2.379       .  S
O670        H705   0.965       .  S
O671       Zr674   2.397       .  S
O671       Zr691   2.396       .  S
O671        H708   0.966       .  S
O672       Zr675   2.389       .  S
O672       Zr691   2.391       .  S
Zr673       O698   2.447       .  S
Zr673       O692   2.422       .  S
Zr673       O700   2.435       .  S
Zr673       O688   2.424       .  S
Zr673       O679   2.393       .  S
Zr673       O680   2.403       .  S
Zr673       O681   2.380       .  S
Zr673       O682   2.385       .  S
Zr674       O693   2.437       .  S
Zr674       O686   2.434       .  S
Zr674       O687   2.437       .  S
Zr674       O680   2.396       .  S
Zr674       O681   2.383       .  S
Zr675       O677   2.436       .  S
Zr675       O699   2.439       .  S
Zr675       O701   2.427       .  S
Zr675       O679   2.394       .  S
Zr675       O682   2.386       .  S
Zr676       O702   2.435   1_545  S
Zr676       O703   2.436   1_545  S
Zr676       O678   2.438   1_545  S
Zr676       O679   2.390       .  S
Zr676       O680   2.393       .  S
O677        H714   0.990       .  S
O678        H709   0.990       .  S
O678        H723   0.990       .  S
O680        H706   0.966       .  S
O681       Zr691   2.373       .  S
O682       Zr691   2.384       .  S
O682        H707   0.966       .  S
C683        C800   1.425   1_545  S
C684        C821   1.436       .  S
C685        C881   1.432       .  S
O686        H722   0.990       .  S
O687        C689   1.284       .  A
O688        C689   1.281       .  A
C689        C820   1.434       .  S
O690       Zr691   2.440       .  S
O690        H719   0.990       .  S
Zr691       O694   2.436       .  S
Zr691       O695   2.439       .  S
Zr691       O696   2.415       .  S
O692        C697   1.281       .  A
O693        H710   0.990       .  S
O693        H725   0.990       .  S
O694        H711   0.990       .  S
O695        H715   0.990       .  S
O695        H724   0.990       .  S
O696        C697   1.280       .  A
C697        C793   1.425       .  S
O698        H717   0.990       .  S
O698        H721   0.990       .  S
O699        H713   0.990       .  S
O699        H720   0.990       .  S
O700        C704   1.284       .  A
O701        C704   1.283       .  A
O702        H712   0.990       .  S
O703        H716   0.990   1_565  S
C704        C840   1.436       .  S
Zr727       O728   2.439       .  S
Zr727       O729   2.419       .  S
Zr727       O730   2.432       .  S
Zr727       O733   2.418       .  S
Zr727       O735   2.378       .  S
Zr727       O736   2.384       .  S
Zr727       O737   2.398       .  S
Zr727       O738   2.398       .  S
O728        H784   0.990       .  S
O728        H792   0.990       .  S
O729        C749   1.280       .  A
O730        C751   1.282       .  A
O731       Zr741   2.439       .  S
O731        C750   1.284       .  A
O732       Zr740   2.447       .  S
O732        C751   1.286       .  A
O733        C750   1.281       .  A
O734       Zr742   2.406       .  S
O734        C749   1.277       .  A
O735       Zr740   2.388       .  S
O735       Zr742   2.377       .  S
O736       Zr741   2.388       .  S
O736       Zr742   2.379       .  S
O736        H771   0.966       .  S
O737       Zr740   2.395       .  S
O737       Zr757   2.397       .  S
O737        H774   0.966       .  S
O738       Zr741   2.388       .  S
O738       Zr757   2.389       .  S
Zr739       O764   2.442       .  S
Zr739       O758   2.431       .  S
Zr739       O766   2.446       .  S
Zr739       O754   2.438       .  S
Zr739       O745   2.392       .  S
Zr739       O746   2.409       .  S
Zr739       O747   2.382       .  S
Zr739       O748   2.388       .  S
Zr740       O759   2.435       .  S
Zr740       O752   2.433       .  S
Zr740       O753   2.426       .  S
Zr740       O746   2.406       .  S
Zr740       O747   2.396       .  S
Zr741       O743   2.435       .  S
Zr741       O765   2.437       .  S
Zr741       O767   2.428       .  S
Zr741       O745   2.390       .  S
Zr741       O748   2.394       .  S
Zr742       O768   2.436       .  S
Zr742       O769   2.436       .  S
Zr742       O744   2.436       .  S
Zr742       O745   2.381       .  S
Zr742       O746   2.390       .  S
O743        H780   0.990       .  S
O744        H775   0.990       .  S
O744        H789   0.990       .  S
O746        H772   0.965       .  S
O747       Zr757   2.379       .  S
O748       Zr757   2.390       .  S
O748        H773   0.966       .  S
C749        C816   1.419       .  S
C750        C805   1.434       .  S
C751        C873   1.443       .  S
O752        H788   0.990       .  S
O753        C755   1.282       .  A
O754        C755   1.282       .  A
C755        C804   1.433       .  S
O756       Zr757   2.440       .  S
O756        H785   0.990       .  S
Zr757       O760   2.438       .  S
Zr757       O761   2.440       .  S
Zr757       O762   2.406       .  S
O758        C763   1.281       .  A
O759        H776   0.990       .  S
O759        H791   0.990       .  S
O760        H777   0.990       .  S
O761        H781   0.990       .  S
O761        H790   0.990       .  S
O762        C763   1.277       .  A
C763        C812   1.426       .  S
O764        H783   0.991       .  S
O764        H787   0.990       .  S
O765        H779   0.990       .  S
O765        H786   0.990       .  S
O766        C770   1.285       .  A
O767        C770   1.282       .  A
O768        H778   0.990       .  S
O769        H782   0.990       .  S
C770        C828   1.439       .  S
C793        C794   1.200       .  T
C794        C795   1.403       .  S
C795        C796   1.200       .  T
C797        C798   1.200       .  T
C798        C799   1.402       .  S
C799        C800   1.200       .  T
C801        C802   1.204       .  T
C802        C803   1.410       .  S
C803        C804   1.204       .  T
C805        C806   1.205       .  T
C806        C807   1.412       .  S
C807        C808   1.206       .  T
C809        C810   1.200       .  T
C810        C811   1.404       .  S
C811        C812   1.200       .  T
C813        C814   1.196       .  T
C814        C815   1.397       .  S
C815        C816   1.196       .  T
C817        C818   1.205       .  T
C818        C819   1.411       .  S
C819        C820   1.205       .  T
C821        C822   1.206       .  T
C822        C823   1.413       .  S
C823        C824   1.206       .  T
C825        C826   1.208       .  T
C826        C827   1.416       .  S
C827        C828   1.208       .  T
C829        C830   1.205       .  T
C830        C831   1.411       .  S
C831        C832   1.205       .  T
C833        C834   1.203       .  T
C834        C835   1.408       .  S
C835        C836   1.203       .  T
C837        C838   1.206       .  T
C838        C839   1.413       .  S
C839        C840   1.206       .  T
C841        C842   1.211       .  T
C842        C843   1.420       .  S
C843        C844   1.210       .  T
C845        C846   1.211       .  T
C846        C847   1.420       .  S
C847        C848   1.211       .  T
C849        C850   1.208       .  T
C850        C851   1.416       .  S
C851        C852   1.208       .  T
C853        C854   1.212       .  T
C854        C855   1.422       .  S
C855        C856   1.212       .  T
C857        C858   1.210       .  T
C858        C859   1.419       .  S
C859        C860   1.210       .  T
C861        C862   1.206       .  T
C862        C863   1.412       .  S
C863        C864   1.205   1_556  T
C865        C866   1.205       .  T
C866        C867   1.411       .  S
C867        C868   1.205       .  T
C869        C870   1.207       .  T
C870        C871   1.414       .  S
C871        C872   1.207       .  T
C873        C874   1.211       .  T
C874        C875   1.420       .  S
C875        C876   1.210       .  T
C877        C878   1.207       .  T
C878        C879   1.414       .  S
C879        C880   1.207       .  T
C881        C882   1.204       .  T
C882        C883   1.410       .  S
C883        C884   1.204       .  T
C885        C886   1.203       .  T
C886        C887   1.408       .  S
C887        C888   1.203       .  T
C889        C890   1.202       .  T
C890        C891   1.405       .  S
C891        C892   1.201       .  T
C893        C894   1.205       .  T
C894        C895   1.411       .  S
C895        C896   1.205       .  T
C897        C898   1.207       .  T
C898        C899   1.415       .  S
C899        C900   1.208       .  T
C901        C902   1.204       .  T
C902        C903   1.409       .  S
C903        C904   1.204       .  T
C905        C906   1.206       .  T
C906        C907   1.413       .  S
C907        C908   1.206       .  T
C909        C910   1.209       .  T
C910        C911   1.417       .  S
C911        C912   1.209       .  T
C913        C914   1.207       .  T
C914        C915   1.415       .  S
C915        C916   1.207       .  T
C917        C918   1.202       .  T
C918        C919   1.405       .  S
C919        C920   1.202       .  T
C921        C922   1.203   1_655  T
C922        C923   1.408       .  S
C923        C924   1.203       .  T
C925        C926   1.202       .  T
C926        C927   1.405       .  S
C927        C928   1.201       .  T
C929        C930   1.204       .  T
C930        C931   1.410       .  S
C931        C932   1.204       .  T
C933        C934   1.205       .  T
C934        C935   1.412       .  S
C935        C936   1.206       .  T
