geometry optimzed in LAMMPS
_audit_creation_date              2020-11-30 
_audit_creation_method            'lammps2cif' 
_symmetry_space_group_name_H-M    'P1' 
_symmetry_Int_Tables_number       1 
_symmetry_cell_setting            triclinic 
loop_ 
_symmetry_equiv_pos_as_xyz 
  x,y,z 
_cell_length_a                    57.60563644 
_cell_length_b                    57.61683308077983 
_cell_length_c                    57.56281401406192 
_cell_angle_alpha                 90.03868798215728 
_cell_angle_beta                  89.85204244041793 
_cell_angle_gamma                 90.07879968552645 
loop_ 
_atom_site_label 
_atom_site_type_symbol 
_atom_site_fract_x 
_atom_site_fract_y 
_atom_site_fract_z 
_atom_site_charge 
O1          O  0.52100797  0.68804847  0.98169094    -0.72000
O2          O  0.47075641  0.64556375  0.98776280    -0.72200
O3          O  0.47416907  0.69158591  0.98403515    -0.72100
O4          O  0.51708460  0.64142451  0.98564743    -0.72100
O5          O  0.51959885  0.64515952  0.02308863    -0.72000
O6          O  0.47542715  0.69379269  0.02165253    -0.72100
O7          O  0.47313891  0.64749077  0.02534362    -0.72000
O8          O  0.52225663  0.69148276  0.01920706    -0.72200
V9          V  0.49585899  0.66676038  0.98549626     1.35200
V10         V  0.49762187  0.66950503  0.02157525     1.35200
C11         C  0.53033458  0.69699613  0.99946445     0.77200
C12         C  0.46336144  0.63924569  0.00748303     0.77300
C13         C  0.46673711  0.70057315  0.00269210     0.77200
C14         C  0.52546737  0.63458636  0.00476300     0.77100
C15         C  0.82419251  0.64710391  0.00072996     0.86300
C16         C  0.83915804  0.64976517  0.97869093    -0.54000
C17         C  0.85296601  0.66912327  0.97839022     0.09200
C18         C  0.85064819  0.68414248  0.00057236     0.20100
C19         C  0.84203357  0.64784477  0.02048422    -0.54700
C20         C  0.85554849  0.66738480  0.02095389     0.09300
C21         C  0.81082620  0.66994774  0.00281698    -0.54200
C22         C  0.82450082  0.68928199  0.00262945     0.09900
H23         H  0.83979384  0.63687873  0.96496438     0.14400
H24         H  0.86149285  0.70007892  0.00053872     0.00100
H25         H  0.84397286  0.63391599  0.03300262     0.14700
H26         H  0.79202268  0.67078687  0.00411209     0.14500
C27         C  0.66536433  0.80889277  0.99109854     0.86300
C28         C  0.66453952  0.82609289  0.01156863    -0.54000
C29         C  0.68355007  0.84021061  0.01343280     0.09200
C30         C  0.70158406  0.83636798  0.99388944     0.20100
C31         C  0.66890003  0.82462965  0.96965199    -0.54700
C32         C  0.68784570  0.83909523  0.97098156     0.09300
C33         C  0.68847570  0.79617055  0.99391344    -0.54200
C34         C  0.70735926  0.81034839  0.99532120     0.09900
H35         H  0.65008655  0.82688788  0.02368829     0.14400
H36         H  0.71722438  0.84754907  0.99522976     0.00100
H37         H  0.65696814  0.82530065  0.95516737     0.14700
H38         H  0.68980759  0.77738271  0.99490681     0.14500
O39         O  0.65410259  0.50393531  0.98924814    -0.72000
O40         O  0.70385882  0.46079687  0.98673543    -0.72200
O41         O  0.65760269  0.45791611  0.98815327    -0.72100
O42         O  0.70075450  0.50742648  0.98772863    -0.72100
O43         O  0.70204467  0.50688819  0.02540413    -0.72000
O44         O  0.65853873  0.45712459  0.02584918    -0.72100
O45         O  0.70513896  0.46025200  0.02442499    -0.72000
O46         O  0.65536538  0.50349664  0.02694646    -0.72200
V47         V  0.67917248  0.48257681  0.98872573     1.35200
V48         V  0.68029225  0.48196881  0.02494697     1.35200
C49         C  0.64590007  0.51067717  0.00850107     0.77200
C50         C  0.71271293  0.45281292  0.00515604     0.77300
C51         C  0.65051318  0.44920629  0.00699117     0.77200
C52         C  0.70885523  0.51564275  0.00640346     0.77100
C53         C  0.65777459  0.15326628  0.00331824     0.86300
C54         C  0.66069574  0.13785685  0.98174095    -0.54000
C55         C  0.68142076  0.12632188  0.98054916     0.09200
C56         C  0.69733363  0.13090431  0.00157730     0.20100
C57         C  0.66162923  0.13650407  0.02370930    -0.54700
C58         C  0.68214307  0.12456942  0.02267154     0.09300
C59         C  0.67912693  0.16899422  0.00332643    -0.54200
C60         C  0.69974122  0.15749179  0.00230754     0.09900
H61         H  0.64723789  0.13605785  0.96868444     0.14400
H62         H  0.71420060  0.12163121  0.00081062     0.00100
H63         H  0.64884687  0.13271226  0.03698844     0.14700
H64         H  0.67802631  0.18782806  0.00328340     0.14500
C65         C  0.82510932  0.31937787  0.00322919     0.86300
C66         C  0.84063495  0.31425018  0.02442224    -0.54000
C67         C  0.85242381  0.29374406  0.02293988     0.09200
C68         C  0.84762342  0.27993833  0.00058508     0.20100
C69         C  0.84176918  0.31760480  0.98237274    -0.54700
C70         C  0.85340969  0.29688971  0.98068226     0.09300
C71         C  0.80947216  0.29801730  0.00113795    -0.54200
C72         C  0.82107849  0.27748949  0.99972121     0.09900
H73         H  0.84337391  0.32589039  0.03891715     0.14400
H74         H  0.85683529  0.26305697  0.99960792     0.00100
H75         H  0.84407429  0.33169227  0.97006410     0.14700
H76         H  0.79063960  0.29904719  0.00061526     0.14500
O77         O  0.51925459  0.32052433  0.98423318    -0.72000
O78         O  0.47099097  0.27594810  0.98337433    -0.72200
O79         O  0.47268582  0.32228515  0.98452055    -0.72100
O80         O  0.51750543  0.27414193  0.98295297    -0.72100
O81         O  0.51668149  0.27225087  0.02062877    -0.72000
O82         O  0.47361414  0.32213481  0.02221994    -0.72100
O83         O  0.47039426  0.27586173  0.02110326    -0.72000
O84         O  0.52002588  0.31867444  0.02190488    -0.72200
V85         V  0.49511644  0.29820093  0.98449351     1.35200
V86         V  0.49520648  0.29725340  0.02073518     1.35200
C87         C  0.52797726  0.32708841  0.00325937     0.77200
C88         C  0.46224408  0.26857450  0.00212352     0.77300
C89         C  0.46547939  0.33046033  0.00360846     0.77200
C90         C  0.52462032  0.26485821  0.00149975     0.77100
C91         C  0.17226364  0.31468082  0.99192016     0.86300
C92         C  0.15900493  0.30921982  0.96919944    -0.54000
C93         C  0.14486678  0.29002883  0.97071412     0.09200
C94         C  0.14564974  0.27793116  0.99452136     0.20100
C95         C  0.15297568  0.31631186  0.01030779    -0.54700
C96         C  0.13898678  0.29715111  0.01189031     0.09300
C97         C  0.18519733  0.29235784  0.99767012    -0.54200
C98         C  0.17143365  0.27323326  0.99893475     0.09900
H99         H  0.15917688  0.32026662  0.95397875     0.14400
H100        H  0.13480830  0.26204001  0.99552709     0.00100
H101        H  0.15103487  0.33138869  0.02143940     0.14700
H102        H  0.20386885  0.29165842  0.00027361     0.14500
C103        C  0.33100298  0.15490903  0.00098716     0.86300
C104        C  0.33212409  0.13624795  0.01995898    -0.54000
C105        C  0.31288099  0.12242841  0.02097662     0.09200
C106        C  0.29430721  0.12823145  0.00280556     0.20100
C107        C  0.32668607  0.14087408  0.97865929    -0.54700
C108        C  0.30746567  0.12699778  0.97959588     0.09300
C109        C  0.30842078  0.16794152  0.00548819    -0.54200
C110        C  0.28929546  0.15410057  0.00631971     0.09900
H111        H  0.34697824  0.13380499  0.03128332     0.14400
H112        H  0.27862676  0.11701838  0.00365120     0.00100
H113        H  0.33855251  0.14029754  0.96403259     0.14700
H114        H  0.30752756  0.18670498  0.00728187     0.14500
C115        C  0.16942384  0.65074286  0.00630506     0.86300
C116        C  0.15484332  0.65614725  0.02803569    -0.54000
C117        C  0.14087558  0.67529884  0.02602524     0.09200
C118        C  0.14284921  0.68740089  0.00209359     0.20100
C119        C  0.15121531  0.64884588  0.98695221    -0.54700
C120        C  0.13761234  0.66810462  0.98413753     0.09300
C121        C  0.18263803  0.67312593  0.00109145    -0.54200
C122        C  0.16897368  0.69229552  0.99895007     0.09900
H123        H  0.15440026  0.64504233  0.04321853     0.14400
H124        H  0.13201494  0.70319451  0.00024043     0.00100
H125        H  0.14924381  0.63335497  0.97640534     0.14700
H126        H  0.20141030  0.67377681  0.99923967     0.14500
C127        C  0.33081954  0.81034586  0.00242652     0.86300
C128        C  0.33271375  0.82998318  0.98444265    -0.54000
C129        C  0.31326706  0.84354474  0.98276710     0.09200
C130        C  0.29356892  0.83622290  0.99940653     0.20100
C131        C  0.32438851  0.82315237  0.02505795    -0.54700
C132        C  0.30498754  0.83670374  0.02353710     0.09300
C133        C  0.30884404  0.79702203  0.99572484    -0.54200
C134        C  0.28937041  0.81036144  0.99423997     0.09900
H135        H  0.34814848  0.83289175  0.97396139     0.14400
H136        H  0.27767720  0.84702596  0.99813299     0.00100
H137        H  0.33515306  0.82356836  0.04040845     0.14700
H138        H  0.30857900  0.77834282  0.99309528     0.14500
O139        O  0.33273126  0.50716297  0.02842283    -0.72000
O140        O  0.28809690  0.45832735  0.02442670    -0.72200
O141        O  0.33461602  0.46051826  0.02586134    -0.72100
O142        O  0.28621214  0.50542580  0.02712566    -0.72100
O143        O  0.28724671  0.50719847  0.98948114    -0.72000
O144        O  0.33566040  0.46256275  0.98822082    -0.72100
O145        O  0.28934704  0.46049032  0.98680915    -0.72000
O146        O  0.33344897  0.50913811  0.99077003    -0.72200
V147        V  0.31036520  0.48286637  0.02575419     1.35200
V148        V  0.31137518  0.48480012  0.98958591     1.35200
C149        C  0.34050698  0.51663820  0.01015310     0.77200
C150        C  0.28152327  0.45071343  0.00484986     0.77300
C151        C  0.34335013  0.45381857  0.00681720     0.77200
C152        C  0.27896320  0.51451972  0.00849436     0.77100
O153        O  0.52285652  0.00557821  0.70959587    -0.72000
O154        O  0.47744966  0.00403703  0.66188491    -0.72200
O155        O  0.47606896  0.00565812  0.70845140    -0.72100
O156        O  0.52393340  0.00393134  0.66311185    -0.72100
O157        O  0.52360600  0.96626533  0.66430653    -0.72000
O158        O  0.47594725  0.96799620  0.70960561    -0.72100
O159        O  0.47713828  0.96638334  0.66313174    -0.72000
O160        O  0.52258297  0.96792458  0.71078071    -0.72200
V161        V  0.50005168  0.00407974  0.68581808     1.35200
V162        V  0.49982783  0.96788556  0.68698047     1.35200
C163        C  0.53073018  0.98696463  0.71811718     0.77200
C164        C  0.46964088  0.98497671  0.65424708     0.77300
C165        C  0.46762764  0.98706628  0.71654858     0.77200
C166        C  0.53189502  0.98477998  0.65594856     0.77100
C167        C  0.83390264  0.97151827  0.66148035     0.86300
C168        C  0.85286583  0.99019229  0.66155987    -0.54000
C169        C  0.86485407  0.99204857  0.68194366     0.09200
C170        C  0.85727209  0.97414478  0.70047256     0.20100
C171        C  0.84703514  0.94918772  0.66773788    -0.54700
C172        C  0.85939182  0.95027351  0.68810747     0.09300
C173        C  0.81899770  0.97683727  0.68280448    -0.54200
C174        C  0.83091418  0.97839050  0.70319497     0.09900
H175        H  0.85613217  0.00150723  0.64681664     0.14400
H176        H  0.86686933  0.97565287  0.71709373     0.00100
H177        H  0.84820715  0.93445719  0.65614623     0.14700
H178        H  0.80035012  0.97947749  0.68175527     0.14500
C179        C  0.66718346  0.98623871  0.82660314     0.86300
C180        C  0.67205747  0.96460412  0.84137261    -0.54000
C181        C  0.69257478  0.96515451  0.85323620     0.09200
C182        C  0.70649111  0.98786577  0.84947514     0.20100
C183        C  0.66874123  0.00621267  0.84407041    -0.54700
C184        C  0.68933922  0.00760191  0.85577887     0.09300
C185        C  0.68860530  0.98902163  0.81113320    -0.54200
C186        C  0.70920879  0.98989259  0.82281193     0.09900
H187        H  0.65988300  0.95043512  0.84360386     0.14400
H188        H  0.72321423  0.98860967  0.85899091     0.00100
H189        H  0.65456221  0.01828481  0.84695569     0.14700
H190        H  0.68751561  0.99010927  0.79232040     0.14500
O191        O  0.70735862  0.99660696  0.47727172    -0.72000
O192        O  0.66404486  0.99802457  0.52674128    -0.72200
O193        O  0.71045947  0.99625606  0.52374213    -0.72100
O194        O  0.66075687  0.99839143  0.48027862    -0.72100
O195        O  0.65901891  0.96076815  0.48053916    -0.72000
O196        O  0.70946648  0.95860767  0.52301253    -0.72100
O197        O  0.66301222  0.96035314  0.52692052    -0.72000
O198        O  0.70550891  0.95897521  0.47653936    -0.72200
V199        V  0.68564278  0.99658547  0.50198302     1.35200
V200        V  0.68427998  0.96040514  0.50175350     1.35200
C201        C  0.71386845  0.97759294  0.46845813     0.77200
C202        C  0.65612103  0.97943603  0.53528061     0.77300
C203        C  0.71846858  0.97707684  0.53081176     0.77200
C204        C  0.65124062  0.97991310  0.47311740     0.77100
C205        C  0.17387259  0.98656993  0.66435944     0.86300
C206        C  0.15673381  0.96610992  0.66468820    -0.54000
C207        C  0.14417267  0.96405765  0.68477108     0.09200
C208        C  0.14944240  0.98328651  0.70271935     0.20100
C209        C  0.15855608  0.00784799  0.66944519    -0.54700
C210        C  0.14597208  0.00633024  0.68962450     0.09300
C211        C  0.18844468  0.98346183  0.68634673    -0.54200
C212        C  0.17579236  0.98182836  0.70634259     0.09900
H213        H  0.15494399  0.95401296  0.65032086     0.14400
H214        H  0.13941262  0.98172139  0.71914126     0.00100
H215        H  0.15687248  0.02256846  0.65791286     0.14700
H216        H  0.20728857  0.98256731  0.68611977     0.14500
C217        C  0.33391943  0.98737187  0.82888764     0.86300
C218        C  0.32831346  0.00963342  0.84256015    -0.54000
C219        C  0.30879847  0.00807211  0.85605429     0.09200
C220        C  0.29649310  0.98441099  0.85461653     0.20100
C221        C  0.33513257  0.96859285  0.84784635    -0.54700
C222        C  0.31555277  0.96692659  0.86127380     0.09300
C223        C  0.31185092  0.98192991  0.81531008    -0.54200
C224        C  0.29228943  0.98049769  0.82857948     0.09900
H225        H  0.33967770  0.02460672  0.84339072     0.14400
H226        H  0.28050433  0.98318232  0.86536664     0.00100
H227        H  0.35023629  0.95766278  0.85051040     0.14700
H228        H  0.31164052  0.97980811  0.79654493     0.14500
O229        O  0.29502596  0.00454568  0.52216944    -0.72000
O230        O  0.34087238  0.00261336  0.47467104    -0.72200
O231        O  0.29434446  0.00392634  0.47537634    -0.72100
O232        O  0.34175538  0.00319053  0.52120086    -0.72100
O233        O  0.34126370  0.96552042  0.52110442    -0.72000
O234        O  0.29274568  0.96630785  0.47653627    -0.72100
O235        O  0.33929040  0.96496635  0.47458756    -0.72000
O236        O  0.29475377  0.96688761  0.52321436    -0.72200
V237        V  0.31796258  0.00284610  0.49838465     1.35200
V238        V  0.31699192  0.96665948  0.49885303     1.35200
C239        C  0.28722310  0.98599541  0.53098928     0.77200
C240        C  0.34787092  0.98348196  0.46648649     0.77300
C241        C  0.28551327  0.98520055  0.46802758     0.77200
C242        C  0.34980244  0.98423147  0.52878867     0.77100
C243        C  0.33678646  0.97756807  0.17141749     0.86300
C244        C  0.33012368  0.95511471  0.15837212    -0.54000
C245        C  0.31022400  0.95686915  0.14552620     0.09200
C246        C  0.29856566  0.98079740  0.14707500     0.20100
C247        C  0.33768057  0.99605284  0.15221396    -0.54700
C248        C  0.31767672  0.99780015  0.13962538     0.09300
C249        C  0.31515495  0.98358582  0.18574693    -0.54200
C250        C  0.29525629  0.98533610  0.17309142     0.09900
H251        H  0.34066277  0.93962620  0.15768112     0.14400
H252        H  0.28230561  0.98232249  0.13686091     0.00100
H253        H  0.35275232  0.00695040  0.14899016     0.14700
H254        H  0.31553516  0.98612850  0.20445118     0.14500
C255        C  0.17368123  0.98339999  0.33388747     0.86300
C256        C  0.15579969  0.00318912  0.33277763    -0.54000
C257        C  0.14332507  0.00403099  0.31250216     0.09200
C258        C  0.14940517  0.98430554  0.29542497     0.20100
C259        C  0.15909653  0.96145552  0.32962069    -0.54700
C260        C  0.14652984  0.96176353  0.30956628     0.09300
C261        C  0.18826555  0.98636686  0.31186323    -0.54200
C262        C  0.17569457  0.98697242  0.29179844     0.09900
H263        H  0.15340488  0.01555675  0.34681013     0.14400
H264        H  0.13946254  0.98463241  0.27893866     0.00100
H265        H  0.15731333  0.94735998  0.34193342     0.14700
H266        H  0.20703389  0.98828730  0.31215164     0.14500
C267        C  0.66881870  0.98019543  0.17120000     0.86300
C268        C  0.67205509  0.00127925  0.15520335    -0.54000
C269        C  0.69117963  0.00014225  0.14114128     0.09200
C270        C  0.70574537  0.97808869  0.14460713     0.20100
C271        C  0.66895496  0.95955330  0.15428721    -0.54700
C272        C  0.68830437  0.95816490  0.14059849     0.09300
C273        C  0.69156603  0.97816658  0.18459442    -0.54200
C274        C  0.71084606  0.97711167  0.17080959     0.09900
H275        H  0.65920821  0.01487152  0.15317882     0.14400
H276        H  0.72150123  0.97718845  0.13348710     0.00100
H277        H  0.65456086  0.94747986  0.15267855     0.14700
H278        H  0.69236388  0.97721004  0.20342953     0.14500
C279        C  0.82513692  0.97844230  0.33386126     0.86300
C280        C  0.84294138  0.95876418  0.33483529    -0.54000
C281        C  0.85701836  0.95715329  0.31570537     0.09200
C282        C  0.85241529  0.97630038  0.29748159     0.20100
C283        C  0.84018311  0.00022772  0.33009250    -0.54700
C284        C  0.85430932  0.99933999  0.31100343     0.09300
C285        C  0.81231566  0.97483757  0.31088946    -0.54200
C286        C  0.82651239  0.97382948  0.29192290     0.09900
H287        H  0.84435164  0.94729718  0.34971128     0.14400
H288        H  0.86346334  0.97537769  0.28170703     0.00100
H289        H  0.84109202  0.01458925  0.34216061     0.14700
H290        H  0.79354720  0.97338384  0.30968181     0.14500
O291        O  0.47980855  0.99916976  0.28951740    -0.72000
O292        O  0.52511121  0.00008993  0.33747884    -0.72200
O293        O  0.52644976  0.99964896  0.29058052    -0.72100
O294        O  0.47867017  0.99956906  0.33592864    -0.72100
O295        O  0.47857165  0.96188600  0.33590449    -0.72000
O296        O  0.52707777  0.96198472  0.29127781    -0.72100
O297        O  0.52498260  0.96243118  0.33805774    -0.72000
O298        O  0.48053052  0.96149860  0.28934183    -0.72200
V299        V  0.50257438  0.99888636  0.31333936     1.35200
V300        V  0.50284249  0.96268178  0.31361344     1.35200
C301        C  0.47218787  0.98020135  0.28147285     0.77200
C302        C  0.53235946  0.98138843  0.34639470     0.77300
C303        C  0.53486363  0.98081107  0.28308878     0.77200
C304        C  0.47040402  0.98073835  0.34359848     0.77100
O305        O  0.98140686  0.50035347  0.70527020    -0.72000
O306        O  0.98542309  0.45201293  0.66079471    -0.72200
O307        O  0.98185362  0.45359067  0.70734024    -0.72100
O308        O  0.98497236  0.49833632  0.65901883    -0.72100
O309        O  0.02250010  0.49949107  0.66217603    -0.72000
O310        O  0.01947414  0.45353719  0.70937752    -0.72100
O311        O  0.02304422  0.45294720  0.66274257    -0.72000
O312        O  0.01895725  0.50003126  0.70865965    -0.72200
V313        V  0.98414711  0.47603619  0.68319094     1.35200
V314        V  0.02027019  0.47647317  0.68572127     1.35200
C315        C  0.99955269  0.50848596  0.71449741     0.77200
C316        C  0.00485787  0.44461966  0.65373589     0.77300
C317        C  0.00017777  0.44578722  0.71653291     0.77200
C318        C  0.00420741  0.50669009  0.65245852     0.77100
C319        C  0.00770134  0.80446763  0.66541536     0.86300
C320        C  0.98618326  0.82010212  0.66836166    -0.54000
C321        C  0.98579044  0.83318762  0.68819454     0.09200
C322        C  0.00784254  0.83015903  0.70309490     0.20100
C323        C  0.02808072  0.82161292  0.66668634    -0.54700
C324        C  0.02838537  0.83508734  0.68633470     0.09300
C325        C  0.00915282  0.79062782  0.68804265    -0.54200
C326        C  0.00925745  0.80386554  0.70770408     0.09900
H327        H  0.97279423  0.82197916  0.65539768     0.14400
H328        H  0.00807375  0.84066375  0.71925765     0.00100
H329        H  0.04096389  0.82318269  0.65297010     0.14700
H330        H  0.01008944  0.77179512  0.68849385     0.14500
C331        C  0.99687942  0.64125958  0.82781182     0.86300
C332        C  0.01597934  0.64203768  0.84648118    -0.54000
C333        C  0.01687363  0.66204015  0.85919386     0.09200
C334        C  0.99731684  0.67923809  0.85293552     0.20100
C335        C  0.97447444  0.64523871  0.84173305    -0.54700
C336        C  0.97456593  0.66496113  0.85509315     0.09300
C337        C  0.00033139  0.66354042  0.81374948    -0.54200
C338        C  0.00046686  0.68336425  0.82668865     0.09900
H339        H  0.02733643  0.62774409  0.85052699     0.14400
H340        H  0.99750786  0.69555841  0.86317006     0.00100
H341        H  0.96021962  0.63288785  0.84177388     0.14700
H342        H  0.00264610  0.66363171  0.79500453     0.14500
O343        O  0.98989425  0.68524139  0.47671786    -0.72000
O344        O  0.98948728  0.63736797  0.52174034    -0.72200
O345        O  0.99001999  0.68395417  0.52324778    -0.72100
O346        O  0.98958835  0.63866675  0.47507601    -0.72100
O347        O  0.02726165  0.63894314  0.47459540    -0.72000
O348        O  0.02768868  0.68306674  0.52366750    -0.72100
O349        O  0.02716317  0.63661170  0.52130187    -0.72000
O350        O  0.02757776  0.68546999  0.47705410    -0.72200
V351        V  0.99047810  0.66128371  0.49919397     1.35200
V352        V  0.02668939  0.66101258  0.49913405     1.35200
C353        C  0.00876613  0.69368264  0.46932759     0.77200
C354        C  0.00820907  0.62885172  0.52929491     0.77300
C355        C  0.00895284  0.69115051  0.53177928     0.77200
C356        C  0.00840061  0.63120881  0.46645824     0.77100
C357        C  0.99941777  0.64993362  0.17356244     0.86300
C358        C  0.97964585  0.65008773  0.15573359    -0.54000
C359        C  0.97728328  0.67049003  0.14382648     0.09200
C360        C  0.99569571  0.68891687  0.15036582     0.20100
C361        C  0.02100548  0.65629023  0.15908267    -0.54700
C362        C  0.01930146  0.67669526  0.14708425     0.09300
C363        C  0.99489260  0.67120872  0.18884378    -0.54200
C364        C  0.99307934  0.69157459  0.17687974     0.09900
H365        H  0.96836927  0.63525796  0.15280682     0.14400
H366        H  0.99404000  0.70556006  0.14080189     0.00100
H367        H  0.03596145  0.64509416  0.15710043     0.14700
H368        H  0.99375820  0.67031825  0.20766987     0.14500
C369        C  0.00737010  0.81115218  0.34116950     0.86300
C370        C  0.02902588  0.82569208  0.33552882    -0.54000
C371        C  0.02729788  0.83840895  0.31555006     0.09200
C372        C  0.00387108  0.83538181  0.30290934     0.20100
C373        C  0.98772874  0.82907076  0.34149744    -0.54700
C374        C  0.98528368  0.84130150  0.32132833     0.09300
C375        C  0.00301112  0.79651645  0.31942518    -0.54200
C376        C  0.00128837  0.80905996  0.29944558     0.09900
H377        H  0.04386891  0.82718945  0.34697557     0.14400
H378        H  0.00235559  0.84531879  0.28647333     0.00100
H379        H  0.97657032  0.83174799  0.35648166     0.14700
H380        H  0.00135391  0.77772803  0.31980364     0.14500
O381        O  0.98909923  0.50255021  0.33406238    -0.72000
O382        O  0.98647979  0.45600114  0.28770924    -0.72200
O383        O  0.98883553  0.45596950  0.33422712    -0.72100
O384        O  0.98692860  0.50258229  0.28761622    -0.72100
O385        O  0.02454432  0.50216612  0.28548610    -0.72000
O386        O  0.02648708  0.45603103  0.33281257    -0.72100
O387        O  0.02412429  0.45537238  0.28608466    -0.72000
O388        O  0.02672989  0.50280825  0.33212892    -0.72200
V389        V  0.98859879  0.47926478  0.31087012     1.35200
V390        V  0.02476649  0.47907699  0.30913114     1.35200
C391        C  0.00822971  0.51077980  0.34095026     0.77200
C392        C  0.00480154  0.44758427  0.27906916     0.77300
C393        C  0.00794530  0.44806991  0.34157901     0.77200
C394        C  0.00540606  0.51049685  0.27870054     0.77100
C395        C  0.00363973  0.15074903  0.66251667     0.86300
C396        C  0.02570770  0.13697001  0.66872734    -0.54000
C397        C  0.02422286  0.12456800  0.68897448     0.09200
C398        C  0.00040293  0.12656937  0.70100173     0.20100
C399        C  0.98441106  0.13223391  0.66219664    -0.54700
C400        C  0.98252601  0.11958028  0.68227347     0.09300
C401        C  0.99854499  0.16527715  0.68417942    -0.54200
C402        C  0.99685912  0.15280336  0.70422704     0.09900
H403        H  0.04095498  0.13591400  0.65781391     0.14400
H404        H  0.99878772  0.11669674  0.71747799     0.00100
H405        H  0.97320302  0.12943827  0.64730945     0.14700
H406        H  0.99662951  0.18403632  0.68373349     0.14500
C407        C  0.99811610  0.31215249  0.82882569     0.86300
C408        C  0.97856087  0.31199823  0.84692486    -0.54000
C409        C  0.97648795  0.29173265  0.85921384     0.09200
C410        C  0.99517448  0.27355877  0.85284444     0.20100
C411        C  0.01996944  0.30645985  0.84303783    -0.54700
C412        C  0.01859139  0.28630132  0.85546226     0.09300
C413        C  0.99383169  0.29048639  0.81408814    -0.54200
C414        C  0.99237430  0.27034413  0.82647248     0.09900
H415        H  0.96705310  0.32669786  0.84946432     0.14400
H416        H  0.99391185  0.25706760  0.86273773     0.00100
H417        H  0.03499166  0.31765475  0.84445407     0.14700
H418        H  0.99229206  0.29100555  0.79528076     0.14500
C419        C  0.99641416  0.15170405  0.33091103     0.86300
C420        C  0.97510037  0.13587971  0.32829759    -0.54000
C421        C  0.97525102  0.12243985  0.30868661     0.09200
C422        C  0.99707136  0.12593167  0.29338106     0.20100
C423        C  0.01691886  0.13479617  0.32959700    -0.54700
C424        C  0.01781472  0.12170497  0.30976593     0.09300
C425        C  0.99762934  0.16551753  0.30826135    -0.54200
C426        C  0.99792751  0.15217771  0.28870066     0.09900
H427        H  0.96157677  0.13423485  0.34129869     0.14400
H428        H  0.99737842  0.11537986  0.27724533     0.00100
H429        H  0.02978496  0.13348365  0.34327850     0.14700
H430        H  0.99871398  0.18434282  0.30773095     0.14500
C431        C  0.99681739  0.31204839  0.16934166     0.86300
C432        C  0.01545593  0.31376500  0.15036088    -0.54000
C433        C  0.01703772  0.29481763  0.13609516     0.09200
C434        C  0.99948831  0.27552436  0.14235598     0.20100
C435        C  0.97434855  0.30680925  0.15579022    -0.54700
C436        C  0.97582612  0.28780081  0.14162739     0.09300
C437        C  0.00232719  0.28955781  0.18221213    -0.54200
C438        C  0.00355823  0.27045033  0.16829354     0.09900
H439        H  0.02661755  0.32885561  0.14867297     0.14400
H440        H  0.00031423  0.25990620  0.13109052     0.00100
H441        H  0.95914891  0.31784002  0.15567289     0.14700
H442        H  0.00427180  0.28866843  0.20096598     0.14500
O443        O  0.98909106  0.31779773  0.47308304    -0.72000
O444        O  0.98760047  0.27206920  0.52066518    -0.72200
O445        O  0.98949224  0.31845693  0.51957236    -0.72100
O446        O  0.98709656  0.27131334  0.47392090    -0.72100
O447        O  0.02474983  0.27073846  0.47244089    -0.72000
O448        O  0.02710487  0.31635573  0.52023710    -0.72100
O449        O  0.02517681  0.26971326  0.51934153    -0.72000
O450        O  0.02675923  0.31738665  0.47353551    -0.72200
V451        V  0.98907257  0.29485960  0.49679833     1.35200
V452        V  0.02524533  0.29352079  0.49639248     1.35200
C453        C  0.00814151  0.32565085  0.46537627     0.77200
C454        C  0.00614604  0.26311393  0.52822215     0.77300
C455        C  0.00857759  0.32539711  0.52783136     0.77200
C456        C  0.00546490  0.26328012  0.46500122     0.77100
C457        C  0.04297219  0.21870868  0.40190989    -0.18100
C458        C  0.04148966  0.20350417  0.38302866    -0.20200
C459        C  0.02013388  0.19350135  0.37690912     0.20400
C460        C  0.00008408  0.19880855  0.38992229    -0.03100
C461        C  0.00150861  0.21439933  0.40878874    -0.06200
C462        C  0.02308115  0.22433408  0.41483849     0.20700
C463        C  0.98132559  0.22020560  0.42143032     0.18900
C464        C  0.95996083  0.21027952  0.41521911    -0.17700
C465        C  0.95859045  0.19470873  0.39661872    -0.19900
C466        C  0.97854940  0.18885228  0.38386698     0.20400
C467        C  0.97725919  0.17340493  0.36504965    -0.32900
C468        C  0.99727786  0.16764287  0.35209442     0.01100
C469        C  0.01849567  0.17840925  0.35790647    -0.24300
C470        C  0.02434531  0.23991722  0.43352212    -0.28800
C471        C  0.00426617  0.24596612  0.44605971     0.06700
C472        C  0.98282147  0.23599004  0.43991417    -0.27500
H473        H  0.05965682  0.22620560  0.40629516     0.11400
H474        H  0.05706739  0.19954868  0.37321488     0.12600
H475        H  0.94429075  0.21458574  0.42473135     0.11700
H476        H  0.94188834  0.18728918  0.39216654     0.10900
H477        H  0.96044428  0.16663972  0.36027488     0.16300
H478        H  0.03386695  0.17497768  0.34756657     0.12200
H479        H  0.04090157  0.24764567  0.43803207     0.15100
H480        H  0.96724086  0.24056665  0.44946621     0.14800
C481        C  0.96569391  0.20098265  0.19936739    -0.18100
C482        C  0.96467300  0.18418516  0.21691984    -0.20200
C483        C  0.98390705  0.18021958  0.23130128     0.20400
C484        C  0.00472314  0.19262208  0.22728525    -0.03100
C485        C  0.00572054  0.20962289  0.20965597    -0.06200
C486        C  0.98594344  0.21414637  0.19593743     0.20700
C487        C  0.02601849  0.22311669  0.20679106     0.18900
C488        C  0.04551581  0.21864483  0.22062055    -0.17700
C489        C  0.04458168  0.20171613  0.23796755    -0.19900
C490        C  0.02410145  0.18908704  0.24181886     0.20400
C491        C  0.02219188  0.17409732  0.26084795    -0.32900
C492        C  0.00115592  0.16280263  0.26566841     0.01100
C493        C  0.98230792  0.16518304  0.25047470    -0.24300
C494        C  0.98628623  0.23276932  0.18019252    -0.28800
C495        C  0.00588901  0.24717895  0.17859228     0.06700
C496        C  0.02592917  0.24184971  0.19128771    -0.27500
H497        H  0.95037238  0.20422489  0.18899034     0.11400
H498        H  0.94859303  0.17480429  0.21971198     0.12600
H499        H  0.06124308  0.22877835  0.21854065     0.11700
H500        H  0.05961373  0.19909274  0.24893058     0.10900
H501        H  0.03660395  0.17226939  0.27280112     0.16300
H502        H  0.96601853  0.15660528  0.25449066     0.12200
H503        H  0.97070160  0.23727437  0.17068185     0.15100
H504        H  0.04088306  0.25326237  0.19020264     0.14800
C505        C  0.04622361  0.20658237  0.57887231    -0.18100
C506        C  0.04593228  0.19075944  0.59729259    -0.20200
C507        C  0.02524988  0.18612411  0.60941382     0.20400
C508        C  0.00466469  0.19755468  0.60288537    -0.03100
C509        C  0.00494290  0.21354343  0.58425225    -0.06200
C510        C  0.02584195  0.21807784  0.57222148     0.20700
C511        C  0.98436912  0.22509607  0.57779276     0.18900
C512        C  0.96375371  0.22064395  0.59008759    -0.17700
C513        C  0.96352126  0.20489308  0.60860991    -0.19900
C514        C  0.98388224  0.19324835  0.61513629     0.20400
C515        C  0.98387196  0.17763058  0.63387496    -0.32900
C516        C  0.00432749  0.16603270  0.64069748     0.01100
C517        C  0.02498477  0.17053871  0.62815738    -0.24300
C518        C  0.02605227  0.23411840  0.55386223    -0.28800
C519        C  0.00561652  0.24569353  0.54723431     0.06700
C520        C  0.98481106  0.24099566  0.55928339    -0.27500
H521        H  0.06243074  0.20987362  0.56985747     0.11400
H522        H  0.06194161  0.18218809  0.60211135     0.12600
H523        H  0.94780398  0.22940894  0.58542635     0.11700
H524        H  0.94740208  0.20185154  0.61786741     0.10900
H525        H  0.96794019  0.17473893  0.64352538     0.16300
H526        H  0.04123592  0.16276667  0.63307930     0.12200
H527        H  0.04217564  0.23761804  0.54475719     0.15100
H528        H  0.96899249  0.24992162  0.55445109     0.14800
C529        C  0.02396496  0.17894437  0.78109907    -0.18100
C530        C  0.02317961  0.19565185  0.79879704    -0.20200
C531        C  0.00527244  0.21216024  0.79946240     0.20400
C532        C  0.98744688  0.21118583  0.78266821    -0.03100
C533        C  0.98826689  0.19440534  0.76482299    -0.06200
C534        C  0.00686257  0.17846727  0.76375605     0.20700
C535        C  0.97115593  0.19445621  0.74730805     0.18900
C536        C  0.95285791  0.21043711  0.74831760    -0.17700
C537        C  0.95202390  0.22700452  0.76598756    -0.19900
C538        C  0.96950806  0.22785416  0.78285984     0.20400
C539        C  0.97018070  0.24601393  0.79893772    -0.32900
C540        C  0.98866688  0.24796713  0.81461364     0.01100
C541        C  0.00562184  0.23050929  0.81560078    -0.24300
C542        C  0.00864096  0.16327993  0.74468394    -0.28800
C543        C  0.99234186  0.16438916  0.72661434     0.06700
C544        C  0.97331319  0.17942242  0.72837850    -0.27500
H545        H  0.03833441  0.16683895  0.78058451     0.11400
H546        H  0.03697509  0.19610692  0.81154927     0.12600
H547        H  0.93957697  0.21058838  0.73502092     0.11700
H548        H  0.93812916  0.23966332  0.76599388     0.10900
H549        H  0.95714165  0.25956654  0.79829555     0.16300
H550        H  0.01998658  0.23223446  0.82762048     0.12200
H551        H  0.02345755  0.15179327  0.74308801     0.15100
H552        H  0.96080827  0.18018431  0.71433969     0.14800
C553        C  0.96690403  0.37373563  0.40777509    -0.18100
C554        C  0.96689812  0.39073238  0.39046132    -0.20200
C555        C  0.98761404  0.40181685  0.38395397     0.20400
C556        C  0.00858535  0.39569974  0.39496605    -0.03100
C557        C  0.00859016  0.37851122  0.41248490    -0.06200
C558        C  0.98762733  0.36751546  0.41888591     0.20700
C559        C  0.02952677  0.37230852  0.42353456     0.18900
C560        C  0.05024096  0.38347047  0.41703349    -0.17700
C561        C  0.05023762  0.40050552  0.39965835    -0.19900
C562        C  0.02951690  0.40671626  0.38846317     0.20400
C563        C  0.02931750  0.42372396  0.37091818    -0.32900
C564        C  0.00840281  0.42997788  0.35993313     0.01100
C565        C  0.98766020  0.41890406  0.36662584    -0.24300
C566        C  0.98770416  0.35043607  0.43622291    -0.28800
C567        C  0.00847614  0.34396514  0.44724695     0.06700
C568        C  0.02935516  0.35503238  0.44080791    -0.27500
H569        H  0.95067073  0.36543209  0.41247046     0.11400
H570        H  0.95065829  0.39521399  0.38214732     0.12600
H571        H  0.06647589  0.37898551  0.42535459     0.11700
H572        H  0.06646875  0.40880574  0.39495254     0.10900
H573        H  0.04539115  0.43219292  0.36594531     0.16300
H574        H  0.97147484  0.42350286  0.35824819     0.12200
H575        H  0.97153638  0.34203086  0.44100220     0.15100
H576        H  0.04544656  0.35025444  0.44926059     0.14800
C577        C  0.95895909  0.39551490  0.22845338    -0.18100
C578        C  0.95766160  0.37652256  0.21333920    -0.20200
C579        C  0.97785265  0.36455781  0.20673585     0.20400
C580        C  0.99955722  0.37195361  0.21531447    -0.03100
C581        C  0.00090574  0.39125515  0.23035446    -0.06200
C582        C  0.98048307  0.40294776  0.23712175     0.20700
C583        C  0.02266516  0.39860730  0.23888971     0.18900
C584        C  0.04284313  0.38671365  0.23224191    -0.17700
C585        C  0.04145659  0.36739920  0.21762244    -0.19900
C586        C  0.01989800  0.35983224  0.20921438     0.20400
C587        C  0.01838596  0.34029107  0.19487968    -0.32900
C588        C  0.99697382  0.33306431  0.18550880     0.01100
C589        C  0.97667545  0.34526044  0.19185598    -0.24300
C590        C  0.98192499  0.42160703  0.25272443    -0.28800
C591        C  0.00354519  0.42880894  0.26157331     0.06700
C592        C  0.02385306  0.41742483  0.25427722    -0.27500
H593        H  0.94310555  0.40432077  0.23345592     0.11400
H594        H  0.94083348  0.37109436  0.20693820     0.12600
H595        H  0.05967924  0.39216557  0.23859839     0.11700
H596        H  0.05725836  0.35833335  0.21293441     0.10900
H597        H  0.03406343  0.33075207  0.19069614     0.16300
H598        H  0.95981736  0.33967932  0.18591466     0.12200
H599        H  0.96617019  0.43034600  0.25817541     0.15100
H600        H  0.04056581  0.42284091  0.26100583     0.14800
C601        C  0.96092160  0.56832762  0.23371202    -0.18100
C602        C  0.96020430  0.58797987  0.21947146    -0.20200
C603        C  0.98079161  0.59778628  0.21080883     0.20400
C604        C  0.00228279  0.58748869  0.21626817    -0.03100
C605        C  0.00303678  0.56775355  0.23081249    -0.06200
C606        C  0.98224965  0.55823088  0.23966934     0.20700
C607        C  0.02459457  0.55786183  0.23685671     0.18900
C608        C  0.04515673  0.56756310  0.22801827    -0.17700
C609        C  0.04439542  0.58708088  0.21358440    -0.19900
C610        C  0.02305584  0.59724404  0.20770840     0.20400
C611        C  0.02222025  0.61719909  0.19375182    -0.32900
C612        C  0.00080349  0.62758093  0.18787798     0.01100
C613        C  0.98023774  0.61786688  0.19704414    -0.24300
C614        C  0.98316090  0.53911732  0.25473372    -0.28800
C615        C  0.00460185  0.52946540  0.26130098     0.06700
C616        C  0.02523940  0.53877596  0.25201236    -0.27500
H617        H  0.94479154  0.56120586  0.24032481     0.11400
H618        H  0.94353284  0.59560681  0.21535548     0.12600
H619        H  0.06186058  0.56019210  0.23245573     0.11700
H620        H  0.06053820  0.59433936  0.20715144     0.10900
H621        H  0.03846023  0.62487323  0.18834122     0.16300
H622        H  0.96369119  0.62605684  0.19352520     0.12200
H623        H  0.96715238  0.53209275  0.26175975     0.15100
H624        H  0.04184858  0.53147846  0.25693234     0.14800
C625        C  0.02906756  0.78050227  0.22374117    -0.18100
C626        C  0.02775253  0.76379502  0.20610527    -0.20200
C627        C  0.00874302  0.74856893  0.20490349     0.20400
C628        C  0.99038201  0.75085917  0.22105557    -0.03100
C629        C  0.99167613  0.76774772  0.23879709    -0.06200
C630        C  0.01136931  0.78230816  0.24045225     0.20700
C631        C  0.97389290  0.76912542  0.25566224     0.18900
C632        C  0.95446581  0.75452173  0.25398469    -0.17700
C633        C  0.95322693  0.73774997  0.23647499    -0.19900
C634        C  0.97137079  0.73537410  0.22034562     0.20400
C635        C  0.97152944  0.71693062  0.20445958    -0.32900
C636        C  0.99033737  0.71387659  0.18921315     0.01100
C637        C  0.00841445  0.73022607  0.18879568    -0.24300
C638        C  0.01358186  0.79742401  0.25950801    -0.28800
C639        C  0.99659701  0.79764341  0.27701852     0.06700
C640        C  0.97649039  0.78409021  0.27465386    -0.27500
H641        H  0.04426847  0.79155247  0.22471367     0.11400
H642        H  0.04197140  0.76229758  0.19384000     0.12600
H643        H  0.94060348  0.75552191  0.26670581     0.11700
H644        H  0.93843615  0.72612086  0.23602548     0.10900
H645        H  0.95765382  0.70418874  0.20474675     0.16300
H646        H  0.02302447  0.72761760  0.17716865     0.12200
H647        H  0.02916508  0.80779941  0.26155688     0.15100
H648        H  0.96345038  0.78435973  0.28828102     0.14800
C649        C  0.05062045  0.56658599  0.39103893    -0.18100
C650        C  0.05056183  0.58339264  0.40862329    -0.20200
C651        C  0.02963073  0.59041523  0.41901229     0.20400
C652        C  0.00852588  0.58059133  0.41143498    -0.03100
C653        C  0.00858527  0.56364628  0.39369449    -0.06200
C654        C  0.02974622  0.55650195  0.38353069     0.20700
C655        C  0.98747003  0.55374167  0.38627571     0.18900
C656        C  0.96651752  0.56093000  0.39644443    -0.17700
C657        C  0.96646120  0.57769157  0.41400878    -0.19900
C658        C  0.98735777  0.58756143  0.42168839     0.20400
C659        C  0.98744007  0.60416824  0.43952727    -0.32900
C660        C  0.00841632  0.61390072  0.44736922     0.01100
C661        C  0.02944147  0.60697396  0.43692320    -0.24300
C662        C  0.02964185  0.53930001  0.36619386    -0.28800
C663        C  0.00862189  0.52919561  0.35890526     0.06700
C664        C  0.98763373  0.53668175  0.36895144    -0.27500
H665        H  0.06701842  0.56138212  0.38339966     0.11400
H666        H  0.06692122  0.59081726  0.41418834     0.12600
H667        H  0.95015877  0.55349086  0.39089071     0.11700
H668        H  0.95006142  0.58286474  0.42166404     0.10900
H669        H  0.97115449  0.60938847  0.44741596     0.16300
H670        H  0.04570054  0.61443015  0.44275796     0.12200
H671        H  0.04589098  0.53372476  0.35847784     0.15100
H672        H  0.97132912  0.52907769  0.36343267     0.14800
C673        C  0.96623125  0.76387334  0.40031434    -0.18100
C674        C  0.96632114  0.74749422  0.41819539    -0.20200
C675        C  0.98738307  0.73889186  0.42679289     0.20400
C676        C  0.00856814  0.74734283  0.41776773    -0.03100
C677        C  0.00846524  0.76406600  0.39990792    -0.06200
C678        C  0.98720200  0.77203210  0.39091227     0.20700
C679        C  0.02961184  0.77217413  0.39051733     0.18900
C680        C  0.05067793  0.76375041  0.39931127    -0.17700
C681        C  0.05079209  0.74713338  0.41699716    -0.19900
C682        C  0.02984392  0.73867386  0.42617220     0.20400
C683        C  0.02979623  0.72137469  0.44326575    -0.32900
C684        C  0.00875005  0.71257132  0.45201779     0.01100
C685        C  0.98761744  0.72163601  0.44390013    -0.24300
C686        C  0.98722446  0.78753546  0.37224984    -0.28800
C687        C  0.00818996  0.79608950  0.36285606     0.06700
C688        C  0.02935839  0.78805611  0.37207679    -0.27500
H689        H  0.94975185  0.76996951  0.39365775     0.11400
H690        H  0.94991366  0.74125534  0.42501945     0.12600
H691        H  0.06707888  0.76980194  0.39230742     0.11700
H692        H  0.06727240  0.74068491  0.42330297     0.10900
H693        H  0.04615500  0.71453123  0.44949727     0.16300
H694        H  0.97130742  0.71501848  0.45062784     0.12200
H695        H  0.97078046  0.79255121  0.36467472     0.15100
H696        H  0.04571407  0.79320195  0.36439704     0.14800
C697        C  0.04975676  0.73273299  0.59518486    -0.18100
C698        C  0.04948766  0.74845502  0.61378535    -0.20200
C699        C  0.02911650  0.76058444  0.61951211     0.20400
C700        C  0.00887903  0.75681658  0.60628386    -0.03100
C701        C  0.00909149  0.74086324  0.58760928    -0.06200
C702        C  0.02963289  0.72876390  0.58202598     0.20700
C703        C  0.98865813  0.73685722  0.57470587     0.18900
C704        C  0.96830932  0.74892856  0.58040424    -0.17700
C705        C  0.96810259  0.76465394  0.59888572    -0.19900
C706        C  0.98826493  0.76866178  0.61194934     0.20400
C707        C  0.98791738  0.78407912  0.63077122    -0.32900
C708        C  0.00806646  0.78847056  0.64404565     0.01100
C709        C  0.02854498  0.77622946  0.63831992    -0.24300
C710        C  0.02958862  0.71276711  0.56356333    -0.28800
C711        C  0.00917025  0.70849283  0.55081040     0.06700
C712        C  0.98881824  0.72069518  0.55648396    -0.27500
H713        H  0.06568591  0.72356990  0.59117738     0.11400
H714        H  0.06521677  0.75108537  0.62373014     0.12600
H715        H  0.95248874  0.74609466  0.57065750     0.11700
H716        H  0.95210554  0.77364526  0.60301728     0.10900
H717        H  0.97146473  0.79176224  0.63523725     0.16300
H718        H  0.04402329  0.77878680  0.64868622     0.12200
H719        H  0.04535152  0.70338784  0.55936238     0.15100
H720        H  0.97305019  0.71761773  0.54670335     0.14800
C721        C  0.97015115  0.75711649  0.79571344    -0.18100
C722        C  0.97146652  0.77451990  0.77873977    -0.20200
C723        C  0.99133396  0.77677211  0.76471562     0.20400
C724        C  0.01052121  0.76204821  0.76865924    -0.03100
C725        C  0.00917555  0.74447184  0.78573389    -0.06200
C726        C  0.98866830  0.74162804  0.79896138     0.20700
C727        C  0.02782263  0.72885246  0.78853430     0.18900
C728        C  0.04808677  0.73170174  0.77527299    -0.17700
C729        C  0.04943107  0.74909836  0.75842053    -0.19900
C730        C  0.03051650  0.76388679  0.75453911     0.20400
C731        C  0.03065888  0.77936673  0.73578916    -0.32900
C732        C  0.01107654  0.79292865  0.73084625     0.01100
C733        C  0.99182843  0.79236099  0.74587663    -0.24300
C734        C  0.98657899  0.72254873  0.81411596    -0.28800
C735        C  0.00455471  0.70618153  0.81568436     0.06700
C736        C  0.02536180  0.70983356  0.80348630    -0.27500
H737        H  0.95432695  0.75528077  0.80576328     0.11400
H738        H  0.95662051  0.78571736  0.77605329     0.12600
H739        H  0.06260083  0.71995052  0.77736415     0.11700
H740        H  0.06494961  0.75042277  0.74782291     0.10900
H741        H  0.04542525  0.77981393  0.72406372     0.16300
H742        H  0.97664334  0.80268995  0.74184614     0.12200
H743        H  0.97045166  0.71952386  0.82339243     0.15100
H744        H  0.03915223  0.69709437  0.80471559     0.14800
C745        C  0.96553508  0.39710312  0.59481465    -0.18100
C746        C  0.96609698  0.38059823  0.57709056    -0.20200
C747        C  0.98722474  0.37068637  0.57017253     0.20400
C748        C  0.00807327  0.37763278  0.58093900    -0.03100
C749        C  0.00750592  0.39432096  0.59884762    -0.06200
C750        C  0.98609267  0.40393055  0.60587244     0.20700
C751        C  0.02827738  0.40125945  0.60980931     0.18900
C752        C  0.04945563  0.39157549  0.60256452    -0.17700
C753        C  0.05001391  0.37495892  0.58479558    -0.19900
C754        C  0.02940685  0.36777418  0.57395499     0.20400
C755        C  0.02966535  0.35079755  0.55641245    -0.32900
C756        C  0.00882702  0.34360658  0.54589137     0.01100
C757        C  0.98775857  0.35379295  0.55278870    -0.24300
C758        C  0.98551956  0.42015371  0.62389877    -0.28800
C759        C  0.00604546  0.42708697  0.63505676     0.06700
C760        C  0.02743029  0.41767304  0.62784933    -0.27500
H761        H  0.94899114  0.40443286  0.59997305     0.11400
H762        H  0.94997300  0.37546635  0.56889080     0.12600
H763        H  0.06557831  0.39675472  0.61073236     0.11700
H764        H  0.06655282  0.36763607  0.57961842     0.10900
H765        H  0.04599081  0.34306599  0.55112456     0.16300
H766        H  0.97162294  0.34847559  0.54470659     0.12200
H767        H  0.96899330  0.42746580  0.62917674     0.15100
H768        H  0.04335672  0.42304982  0.63628948     0.14800
C769        C  0.96476394  0.57389261  0.57870365    -0.18100
C770        C  0.96423838  0.55677553  0.59587817    -0.20200
C771        C  0.98488339  0.54916021  0.60623683     0.20400
C772        C  0.00629297  0.55884825  0.59925169    -0.03100
C773        C  0.00682927  0.57608925  0.58187265    -0.06200
C774        C  0.98594948  0.58362869  0.57158544     0.20700
C775        C  0.02822651  0.58577819  0.57482110     0.18900
C776        C  0.04885953  0.57822197  0.58527555    -0.17700
C777        C  0.04832318  0.56114940  0.60254526    -0.19900
C778        C  0.02714410  0.55133705  0.60963349     0.20400
C779        C  0.02642364  0.53420023  0.62694054    -0.32900
C780        C  0.00510926  0.52450482  0.63400031     0.01100
C781        C  0.98444635  0.53206931  0.62350258    -0.24300
C782        C  0.98659300  0.60078716  0.55437877    -0.28800
C783        C  0.00784210  0.61049241  0.54719946     0.06700
C784        C  0.02860104  0.60287045  0.55748399    -0.27500
H785        H  0.94858846  0.57951088  0.57097463     0.11400
H786        H  0.94766649  0.54950463  0.60108243     0.12600
H787        H  0.06542515  0.58552132  0.58009352     0.11700
H788        H  0.06448624  0.55561067  0.61035412     0.10900
H789        H  0.04243559  0.52848248  0.63495038     0.16300
H790        H  0.96793874  0.52471103  0.62882024     0.12200
H791        H  0.97050529  0.60656675  0.54656135     0.15100
H792        H  0.04504077  0.61035020  0.55212824     0.14800
C793        C  0.96021381  0.59587496  0.76375071    -0.18100
C794        C  0.96051319  0.57746162  0.74782540    -0.20200
C795        C  0.97884713  0.56141640  0.74780177     0.20400
C796        C  0.99703860  0.56397870  0.76397318    -0.03100
C797        C  0.99662400  0.58242030  0.78010712    -0.06200
C798        C  0.97818998  0.59850167  0.77999258     0.20700
C799        C  0.01489994  0.58494734  0.79609264     0.18900
C800        C  0.03334889  0.56905833  0.79599276    -0.17700
C801        C  0.03379265  0.55084628  0.78003121    -0.19900
C802        C  0.01579932  0.54823289  0.76391886     0.20400
C803        C  0.01637174  0.53021058  0.74767423    -0.32900
C804        C  0.99829581  0.52741892  0.73164249     0.01100
C805        C  0.97946954  0.54296470  0.73183934    -0.24300
C806        C  0.97824519  0.61704736  0.79590984    -0.28800
C807        C  0.99647307  0.61980895  0.81204448     0.06700
C808        C  0.01480809  0.60353754  0.81168416    -0.27500
H809        H  0.94593492  0.60808584  0.76333586     0.11400
H810        H  0.94645033  0.57582721  0.73546527     0.12600
H811        H  0.04753158  0.57078851  0.80820498     0.11700
H812        H  0.04827364  0.53886261  0.78022042     0.10900
H813        H  0.03085539  0.51820343  0.74761422     0.16300
H814        H  0.96558784  0.54095718  0.71931153     0.12200
H815        H  0.96427493  0.62962845  0.79554476     0.15100
H816        H  0.02977439  0.60534228  0.82266837     0.14800
C817        C  0.95693212  0.38689986  0.76221931    -0.18100
C818        C  0.95685799  0.36812497  0.77766624    -0.20200
C819        C  0.97752617  0.36079931  0.78825372     0.20400
C820        C  0.99836446  0.37276604  0.78355088    -0.03100
C821        C  0.99848715  0.39159172  0.76783957    -0.06200
C822        C  0.97770195  0.39858561  0.75697881     0.20700
C823        C  0.01951509  0.40306558  0.76263086     0.18900
C824        C  0.04009074  0.39599697  0.77348893    -0.17700
C825        C  0.03994914  0.37740304  0.78905667    -0.19900
C826        C  0.01922313  0.36556669  0.79406043     0.20400
C827        C  0.01920111  0.34638225  0.80902424    -0.32900
C828        C  0.99852788  0.33410461  0.81386746     0.01100
C829        C  0.97779487  0.34149799  0.80313184    -0.24300
C830        C  0.97818090  0.41675403  0.74069145    -0.28800
C831        C  0.99924446  0.42780965  0.73492350     0.06700
C832        C  0.01974421  0.42105914  0.74627129    -0.27500
H833        H  0.94079354  0.39206037  0.75410626     0.11400
H834        H  0.94065829  0.35919429  0.78116715     0.12600
H835        H  0.05636914  0.40467221  0.76971957     0.11700
H836        H  0.05612960  0.37211938  0.79700825     0.10900
H837        H  0.03563612  0.34080968  0.81595435     0.16300
H838        H  0.96183702  0.33197098  0.80620340     0.12200
H839        H  0.96227446  0.42186806  0.73208727     0.15100
H840        H  0.03602494  0.42956721  0.74209925     0.14800
C841        C  0.90438723  0.86353516  0.33796013    -0.18100
C842        C  0.88632008  0.87962108  0.33698268    -0.20200
C843        C  0.88919671  0.90051890  0.32482793     0.20400
C844        C  0.91024222  0.90507215  0.31312507    -0.03100
C845        C  0.92843712  0.88881436  0.31403992    -0.06200
C846        C  0.92554087  0.86810562  0.32673762     0.20700
C847        C  0.94958464  0.89339015  0.30248930     0.18900
C848        C  0.95225171  0.91409934  0.28993648    -0.17700
C849        C  0.93420895  0.93029130  0.28910849    -0.19900
C850        C  0.91321162  0.92598409  0.30076929     0.20400
C851        C  0.89535901  0.94245985  0.30075506    -0.32900
C852        C  0.87477992  0.93859123  0.31333459     0.01100
C853        C  0.87156755  0.91715127  0.32463567    -0.24300
C854        C  0.94397199  0.85248542  0.32835264    -0.28800
C855        C  0.96544701  0.85728219  0.31764982     0.06700
C856        C  0.96782265  0.87739247  0.30407667    -0.27500
H857        H  0.90191483  0.84764473  0.34772321     0.11400
H858        H  0.87022272  0.87587191  0.34601964     0.12600
H859        H  0.96839240  0.91790167  0.28100047     0.11700
H860        H  0.93676832  0.94629957  0.27956183     0.10900
H861        H  0.89795425  0.95846702  0.29149493     0.16300
H862        H  0.85541979  0.91339804  0.33356051     0.12200
H863        H  0.94154756  0.83655603  0.33806404     0.15100
H864        H  0.98391503  0.88100094  0.29521095     0.14800
C865        C  0.89319182  0.09924100  0.31615080    -0.18100
C866        C  0.87614184  0.08197025  0.31635915    -0.20200
C867        C  0.88155817  0.05926390  0.30943931     0.20400
C868        C  0.90416723  0.05403048  0.30158636    -0.03100
C869        C  0.92137434  0.07146893  0.30133858    -0.06200
C870        C  0.91590037  0.09407121  0.30898145     0.20700
C871        C  0.94419695  0.06611619  0.29415089     0.18900
C872        C  0.94943500  0.04350238  0.28672718    -0.17700
C873        C  0.93235593  0.02620008  0.28697662    -0.19900
C874        C  0.90976517  0.03122843  0.29466662     0.20400
C875        C  0.89295318  0.01368058  0.29643535    -0.32900
C876        C  0.87077531  0.01848113  0.30542446     0.01100
C877        C  0.86498660  0.04154442  0.31105364    -0.24300
C878        C  0.93338810  0.11091676  0.31007225    -0.28800
C879        C  0.95640944  0.10547159  0.30394175     0.06700
C880        C  0.96153180  0.08323548  0.29533426    -0.27500
H881        H  0.88872537  0.11654288  0.32202467     0.11400
H882        H  0.85883953  0.08626174  0.32239908     0.12600
H883        H  0.96685566  0.03908904  0.28113802     0.11700
H884        H  0.93693695  0.00876925  0.28158741     0.10900
H885        H  0.89762740  0.99618440  0.29189983     0.16300
H886        H  0.84772022  0.04563782  0.31734321     0.12200
H887        H  0.92919075  0.12817488  0.31629604     0.15100
H888        H  0.97915801  0.07885858  0.29068737     0.14800
C889        C  0.60727340  0.02279118  0.21536493    -0.18100
C890        C  0.58846711  0.02280848  0.23077003    -0.20200
C891        C  0.57983850  0.00186494  0.23975690     0.20400
C892        C  0.58994012  0.98066540  0.23279837    -0.03100
C893        C  0.60895452  0.98066569  0.21732395    -0.06200
C894        C  0.61775099  0.00182965  0.20869949     0.20700
C895        C  0.61956089  0.95954000  0.21103925     0.18900
C896        C  0.61064214  0.93854917  0.21962400    -0.17700
C897        C  0.59163055  0.93851682  0.23475089    -0.19900
C898        C  0.58139155  0.95948910  0.24169443     0.20400
C899        C  0.56310467  0.95967298  0.25777141    -0.32900
C900        C  0.55337325  0.98076212  0.26528090     0.01100
C901        C  0.56161630  0.00177553  0.25593745    -0.24300
C902        C  0.63705298  0.00172696  0.19382273    -0.28800
C903        C  0.64763267  0.98068046  0.18711813     0.06700
C904        C  0.63906385  0.95974446  0.19649911    -0.27500
H905        H  0.61376744  0.03920212  0.20883387     0.11400
H906        H  0.58084370  0.03922814  0.23586798     0.12600
H907        H  0.61848630  0.92215737  0.21477657     0.11700
H908        H  0.58518252  0.92210655  0.24132867     0.10900
H909        H  0.55675636  0.94338639  0.26476779     0.16300
H910        H  0.55408574  0.01810020  0.26149528     0.12200
H911        H  0.64406906  0.01818104  0.18811874     0.15100
H912        H  0.64760249  0.94347930  0.19248739     0.14800
C913        C  0.80043098  0.00872365  0.21888377    -0.18100
C914        C  0.78361889  0.00928179  0.20135913    -0.20200
C915        C  0.76875295  0.99026906  0.19788914     0.20400
C916        C  0.77184814  0.96992777  0.21123415    -0.03100
C917        C  0.78872416  0.96939555  0.22894085    -0.06200
C918        C  0.80258891  0.98917199  0.23325638     0.20700
C919        C  0.79044684  0.94973069  0.24347275     0.18900
C920        C  0.77658004  0.93019402  0.23913654    -0.17700
C921        C  0.75991751  0.93069645  0.22156861    -0.19900
C922        C  0.75689154  0.95074962  0.20812530     0.20400
C923        C  0.73808867  0.95260034  0.19292367    -0.32900
C924        C  0.73393923  0.97337823  0.18099393     0.01100
C925        C  0.74981108  0.99179423  0.18261524    -0.24300
C926        C  0.81700362  0.98964426  0.25289732    -0.28800
C927        C  0.81707142  0.97086498  0.26839650     0.06700
C928        C  0.80465325  0.95062053  0.26312814    -0.27500
H929        H  0.81104950  0.02397205  0.22185021     0.11400
H930        H  0.78161310  0.02494773  0.19116218     0.12600
H931        H  0.77790228  0.91490412  0.25000160     0.11700
H932        H  0.74869169  0.91578001  0.21919978     0.10900
H933        H  0.72566174  0.93849796  0.19160211     0.16300
H934        H  0.74635840  0.00786433  0.17346451     0.12200
H935        H  0.82660065  0.00526937  0.25719306     0.15100
H936        H  0.80487304  0.93618914  0.27521918     0.14800
C937        C  0.05011157  0.04728791  0.28072030    -0.18100
C938        C  0.06793341  0.03077352  0.28105872    -0.20200
C939        C  0.08905377  0.03565354  0.29220596     0.20400
C940        C  0.09263150  0.05771742  0.30216191    -0.03100
C941        C  0.07481225  0.07445957  0.30152702    -0.06200
C942        C  0.05321396  0.06902820  0.29131761     0.20700
C943        C  0.07834173  0.09632974  0.31190291     0.18900
C944        C  0.09986589  0.10167748  0.32192643    -0.17700
C945        C  0.11740358  0.08499781  0.32280325    -0.19900
C946        C  0.11373279  0.06281408  0.31347595     0.20400
C947        C  0.13045694  0.04541334  0.31604172    -0.32900
C948        C  0.12651732  0.02293867  0.30734394     0.01100
C949        C  0.10629762  0.01861179  0.29436103    -0.24300
C950        C  0.03485818  0.08502817  0.29282148    -0.28800
C951        C  0.03782113  0.10617378  0.30467695     0.06700
C952        C  0.05999244  0.11211880  0.31304420    -0.27500
H953        H  0.03371884  0.04285484  0.27265118     0.11400
H954        H  0.06493732  0.01393228  0.27322013     0.12600
H955        H  0.10286942  0.11850716  0.32978426     0.11700
H956        H  0.13362231  0.08926039  0.33130175     0.10900
H957        H  0.14644012  0.04932060  0.32514073     0.16300
H958        H  0.10341950  0.00182905  0.28666899     0.12200
H959        H  0.01811134  0.08047650  0.28576678     0.15100
H960        H  0.06283722  0.12883144  0.32120987     0.14800
C961        C  0.10971373  0.86134210  0.31364877    -0.18100
C962        C  0.12658947  0.87876831  0.31264241    -0.20200
C963        C  0.12035943  0.90164886  0.30718501     0.20400
C964        C  0.09704561  0.90691211  0.30192812    -0.03100
C965        C  0.08002901  0.88933334  0.30292590    -0.06200
C966        C  0.08636269  0.86653769  0.30920010     0.20700
C967        C  0.05656462  0.89477193  0.29860768     0.18900
C968        C  0.05039636  0.91758289  0.29273852    -0.17700
C969        C  0.06727045  0.93503321  0.29180124    -0.19900
C970        C  0.09056858  0.92992435  0.29668295     0.20400
C971        C  0.10728053  0.94759748  0.29755802    -0.32900
C972        C  0.13024032  0.94266834  0.30389773     0.01100
C973        C  0.13682013  0.91953621  0.30795885    -0.24300
C974        C  0.06912157  0.84958239  0.31188456    -0.28800
C975        C  0.04560223  0.85515217  0.30862496     0.06700
C976        C  0.03956480  0.87756010  0.30128333    -0.27500
H977        H  0.11484677  0.84390933  0.31844226     0.11400
H978        H  0.14442939  0.87446046  0.31668949     0.12600
H979        H  0.03244120  0.92203380  0.28939369     0.11700
H980        H  0.06202080  0.95262619  0.28776239     0.10900
H981        H  0.10199658  0.96529096  0.29489031     0.16300
H982        H  0.15459119  0.91563429  0.31272462     0.12200
H983        H  0.07390752  0.83222059  0.31730254     0.15100
H984        H  0.02157924  0.88206206  0.29904449     0.14800
C985        C  0.42363416  0.93839232  0.22420202    -0.18100
C986        C  0.40488963  0.93793431  0.20879610    -0.20200
C987        C  0.39150490  0.95793358  0.20504363     0.20400
C988        C  0.39720695  0.97863882  0.21679083    -0.03100
C989        C  0.41616748  0.97913169  0.23229570    -0.06200
C990        C  0.42936437  0.95886945  0.23610498     0.20700
C991        C  0.42174641  0.99983230  0.24415388     0.18900
C992        C  0.40834428  0.01980513  0.24045330    -0.17700
C993        C  0.38952975  0.01928086  0.22515266    -0.19900
C994        C  0.38382342  0.99878386  0.21326933     0.20400
C995        C  0.36479113  0.99803888  0.19816613    -0.32900
C996        C  0.35863543  0.97741160  0.18646973     0.01100
C997        C  0.37235599  0.95742366  0.19000515    -0.24300
C998        C  0.44787437  0.95938056  0.25192822    -0.28800
C999        C  0.45348448  0.97994902  0.26387218     0.06700
C1000       C  0.44044064  0.00014344  0.25970878    -0.27500
H1001       H  0.43358409  0.92268167  0.22689335     0.11400
H1002       H  0.40076650  0.92186540  0.19991866     0.12600
H1003       H  0.41234691  0.03581828  0.24948490     0.11700
H1004       H  0.37937843  0.03489976  0.22268118     0.10900
H1005       H  0.35438823  0.01351794  0.19573124     0.16300
H1006       H  0.36826325  0.94119676  0.18165654     0.12200
H1007       H  0.45783348  0.94374010  0.25503164     0.15100
H1008       H  0.44450749  0.01601829  0.26897379     0.14800
C1009       C  0.19979493  0.96068343  0.21395871    -0.18100
C1010       C  0.21707010  0.96054012  0.19678202    -0.20200
C1011       C  0.23489470  0.97718558  0.19703050     0.20400
C1012       C  0.23443311  0.99507190  0.21382039    -0.03100
C1013       C  0.21700190  0.99526188  0.23105691    -0.06200
C1014       C  0.20005389  0.97750455  0.23161816     0.20700
C1015       C  0.21759571  0.01223952  0.24872553     0.18900
C1016       C  0.23450914  0.02975195  0.24816884    -0.17700
C1017       C  0.25181751  0.02950582  0.23116708    -0.19900
C1018       C  0.25236909  0.01178850  0.21447507     0.20400
C1019       C  0.27141310  0.00951100  0.19957204    -0.32900
C1020       C  0.27281458  0.99072310  0.18414713     0.01100
C1021       C  0.25403747  0.97532998  0.18197112    -0.24300
C1022       C  0.18484590  0.97596660  0.25071283    -0.28800
C1023       C  0.18694044  0.99166818  0.26924571     0.06700
C1024       C  0.20241594  0.01041215  0.26758358    -0.27500
H1025       H  0.18680755  0.94706381  0.21398502     0.11400
H1026       H  0.21705340  0.94681379  0.18390646     0.12600
H1027       H  0.23499182  0.04301379  0.26151751     0.11700
H1028       H  0.26534701  0.04258005  0.23169599     0.10900
H1029       H  0.28587833  0.02150682  0.20093423     0.16300
H1030       H  0.25523732  0.96085275  0.16998158     0.12200
H1031       H  0.17276283  0.96158030  0.25205511     0.15100
H1032       H  0.20365887  0.02270854  0.28180985     0.14800
C1033       C  0.41803640  0.93937629  0.39766385    -0.18100
C1034       C  0.40094462  0.93977371  0.41496250    -0.20200
C1035       C  0.39180312  0.96095771  0.42279930     0.20400
C1036       C  0.39995252  0.98194887  0.41312172    -0.03100
C1037       C  0.41716437  0.98154831  0.39568490    -0.06200
C1038       C  0.42625774  0.96015699  0.38793851     0.20700
C1039       C  0.42532002  0.00256663  0.38608307     0.18900
C1040       C  0.41621026  0.02374514  0.39389567    -0.17700
C1041       C  0.39916455  0.02414200  0.41118407    -0.19900
C1042       C  0.39095942  0.00336490  0.42090028     0.20400
C1043       C  0.37394152  0.00366570  0.43828741    -0.32900
C1044       C  0.36570079  0.98284929  0.44801728     0.01100
C1045       C  0.37469711  0.96154132  0.44016298    -0.24300
C1046       C  0.44350270  0.95995264  0.37071866    -0.28800
C1047       C  0.45181338  0.98087314  0.36123832     0.06700
C1048       C  0.44254793  0.00208156  0.36893449    -0.27500
H1049       H  0.42485651  0.92281414  0.39192106     0.11400
H1050       H  0.39489017  0.92350697  0.42223194     0.12600
H1051       H  0.42231582  0.04001567  0.38667329     0.11700
H1052       H  0.39241461  0.04071297  0.41698172     0.10900
H1053       H  0.36710177  0.02015922  0.44423194     0.16300
H1054       H  0.36847755  0.94541373  0.44762537     0.12200
H1055       H  0.45057654  0.94352883  0.36485552     0.15100
H1056       H  0.44883137  0.01827946  0.36167395     0.14800
C1057       C  0.22398756  0.02619561  0.38974503    -0.18100
C1058       C  0.23939270  0.02658894  0.40851944    -0.20200
C1059       C  0.24529115  0.00597630  0.42007091     0.20400
C1060       C  0.23532635  0.98480621  0.41279683    -0.03100
C1061       C  0.21966360  0.98444786  0.39394532    -0.06200
C1062       C  0.21410592  0.00520236  0.38226257     0.20700
C1063       C  0.21000589  0.96324349  0.38647696     0.18900
C1064       C  0.21593085  0.94260548  0.39797117    -0.17700
C1065       C  0.23140597  0.94295055  0.41663801    -0.19900
C1066       C  0.24128665  0.96392769  0.42409878     0.20400
C1067       C  0.25731103  0.96430489  0.44239633    -0.32900
C1068       C  0.26757344  0.98527550  0.44959562     0.01100
C1069       C  0.26126308  0.00609474  0.43848039    -0.24300
C1070       C  0.19902263  0.00457650  0.36313537    -0.28800
C1071       C  0.18886443  0.98355623  0.35568527     0.06700
C1072       C  0.19490652  0.96289318  0.36741027    -0.27500
H1073       H  0.21988574  0.04231760  0.38099916     0.11400
H1074       H  0.24687150  0.04300398  0.41386380     0.12600
H1075       H  0.20867708  0.92614806  0.39244384     0.11700
H1076       H  0.23579683  0.92676418  0.42512209     0.10900
H1077       H  0.26202259  0.94817326  0.45083057     0.16300
H1078       H  0.26910627  0.02234260  0.44384442     0.12200
H1079       H  0.19533157  0.02049563  0.35383653     0.15100
H1080       H  0.18877626  0.94623174  0.36142784     0.14800
C1081       C  0.05228859  0.04949415  0.71874646    -0.18100
C1082       C  0.06958611  0.03245797  0.71855226    -0.20200
C1083       C  0.09196349  0.03769961  0.71035829     0.20400
C1084       C  0.09729388  0.06061284  0.70351429    -0.03100
C1085       C  0.07983382  0.07771725  0.70355034    -0.06200
C1086       C  0.05709175  0.07197377  0.71062328     0.20700
C1087       C  0.08484025  0.10020924  0.69526335     0.18900
C1088       C  0.10758370  0.10590261  0.68861896    -0.17700
C1089       C  0.12492937  0.08898564  0.68870548    -0.19900
C1090       C  0.11972534  0.06614250  0.69534468     0.20400
C1091       C  0.13612623  0.04848036  0.69257726    -0.32900
C1092       C  0.13028537  0.02526155  0.69737217     0.01100
C1093       C  0.10866219  0.02020808  0.70754196    -0.24300
C1094       C  0.03929062  0.08833390  0.70803608    -0.28800
C1095       C  0.04368102  0.10980972  0.69731992     0.06700
C1096       C  0.06676617  0.11613425  0.69234298    -0.27500
H1097       H  0.03492491  0.04483271  0.72435309     0.11400
H1098       H  0.06523943  0.01498926  0.72402499     0.12600
H1099       H  0.11174950  0.12319035  0.68247853     0.11700
H1100       H  0.14216717  0.09353605  0.68264535     0.10900
H1101       H  0.15312147  0.05266683  0.68560672     0.16300
H1102       H  0.10420779  0.00254598  0.71187254     0.12200
H1103       H  0.02190117  0.08364270  0.71300353     0.15100
H1104       H  0.07055264  0.13309421  0.68512318     0.14800
C1105       C  0.12547278  0.88074441  0.67652356    -0.18100
C1106       C  0.10930512  0.86259949  0.67688017    -0.20200
C1107       C  0.08647152  0.86651703  0.68448421     0.20400
C1108       C  0.08008543  0.88874825  0.69255172    -0.03100
C1109       C  0.09641589  0.90706914  0.69221093    -0.06200
C1110       C  0.11908479  0.90310673  0.68378230     0.20700
C1111       C  0.08986011  0.92947924  0.69965360     0.18900
C1112       C  0.06719079  0.93323649  0.70782630    -0.17700
C1113       C  0.05100192  0.91508763  0.70813557    -0.19900
C1114       C  0.05719837  0.89285426  0.70029421     0.20400
C1115       C  0.04071430  0.87489334  0.69930762    -0.32900
C1116       C  0.04662699  0.85300794  0.69029867     0.01100
C1117       C  0.06973720  0.84881165  0.68345853    -0.24300
C1118       C  0.13474940  0.92169710  0.68213718    -0.28800
C1119       C  0.12811281  0.94424259  0.68881180     0.06700
C1120       C  0.10585093  0.94785945  0.69811719    -0.27500
H1121       H  0.14286133  0.87738296  0.67014761     0.11400
H1122       H  0.11453853  0.84560057  0.67076157     0.12600
H1123       H  0.06185942  0.95032024  0.71361749     0.11700
H1124       H  0.03350262  0.91854192  0.71414812     0.10900
H1125       H  0.02305521  0.87835681  0.70447923     0.16300
H1126       H  0.07458589  0.83186154  0.67687413     0.12200
H1127       H  0.15205199  0.91871389  0.67531037     0.15100
H1128       H  0.10058291  0.96509995  0.70317520     0.14800
C1129       C  0.22726430  0.94557567  0.61066225    -0.18100
C1130       C  0.24308352  0.94538077  0.59222491    -0.20200
C1131       C  0.24820132  0.96588538  0.58012206     0.20400
C1132       C  0.23709017  0.98676427  0.58646899    -0.03100
C1133       C  0.22088382  0.98688751  0.60493161    -0.06200
C1134       C  0.21616521  0.96624004  0.61718682     0.20700
C1135       C  0.20976019  0.00770855  0.61138739     0.18900
C1136       C  0.21494837  0.02824346  0.59926589    -0.17700
C1137       C  0.23112242  0.02816128  0.58104807    -0.19900
C1138       C  0.24234550  0.00752731  0.57455157     0.20400
C1139       C  0.25879129  0.00727241  0.55646017    -0.32900
C1140       C  0.26985693  0.98645273  0.55000332     0.01100
C1141       C  0.26436441  0.96585204  0.56190439    -0.24300
C1142       C  0.20072473  0.96660679  0.63600237    -0.28800
C1143       C  0.18924766  0.98716814  0.64264281     0.06700
C1144       C  0.19400148  0.00774323  0.63009877    -0.27500
H1145       H  0.22376733  0.92955438  0.61988409     0.11400
H1146       H  0.25146741  0.92920870  0.58755156     0.12600
H1147       H  0.20661114  0.04442676  0.60398293     0.11700
H1148       H  0.23490628  0.04426487  0.57208547     0.10900
H1149       H  0.26289131  0.02323310  0.54736230     0.16300
H1150       H  0.27286940  0.94975280  0.55715574     0.12200
H1151       H  0.19779494  0.95079376  0.64578591     0.15100
H1152       H  0.18637086  0.02407522  0.63516405     0.14800
C1153       C  0.23193984  0.93861711  0.75263950    -0.18100
C1154       C  0.24817494  0.93809285  0.77055802    -0.20200
C1155       C  0.24913438  0.95618397  0.78680926     0.20400
C1156       C  0.23280342  0.97440197  0.78584582    -0.03100
C1157       C  0.21630084  0.97487336  0.76778031    -0.06200
C1158       C  0.21637457  0.95718613  0.75078969     0.20700
C1159       C  0.20070111  0.99368123  0.76590836     0.18900
C1160       C  0.20115815  0.01132598  0.78276423    -0.17700
C1161       C  0.21767609  0.01094359  0.80062196    -0.19900
C1162       C  0.23395145  0.99285634  0.80198602     0.20400
C1163       C  0.25233123  0.99362848  0.81805113    -0.32900
C1164       C  0.26953284  0.97635418  0.81769395     0.01100
C1165       C  0.26720861  0.95719475  0.80288742    -0.24300
C1166       C  0.20181389  0.95899467  0.73152073    -0.28800
C1167       C  0.18715048  0.97817710  0.72894316     0.06700
C1168       C  0.18591786  0.99507501  0.74651776    -0.27500
H1169       H  0.23206552  0.92487698  0.73977708     0.11400
H1170       H  0.26057253  0.92398068  0.77117702     0.12600
H1171       H  0.18926404  0.02583468  0.78168125     0.11700
H1172       H  0.21820886  0.02519170  0.81290490     0.10900
H1173       H  0.25435302  0.00853466  0.82938216     0.16300
H1174       H  0.28059205  0.94396385  0.80269433     0.12200
H1175       H  0.20262201  0.94601559  0.71787891     0.15100
H1176       H  0.17464413  0.00996445  0.74431507     0.14800
C1177       C  0.59702329  0.02327329  0.42212484    -0.18100
C1178       C  0.58058980  0.02347812  0.40420775    -0.20200
C1179       C  0.57235677  0.00259048  0.39467190     0.20400
C1180       C  0.58029417  0.98129760  0.40377097    -0.03100
C1181       C  0.59683861  0.98109120  0.42187884    -0.06200
C1182       C  0.60551895  0.00217681  0.43086192     0.20700
C1183       C  0.60506017  0.95976200  0.43061201     0.18900
C1184       C  0.59626509  0.93888324  0.42164996    -0.17700
C1185       C  0.57991936  0.93908723  0.40373942    -0.19900
C1186       C  0.57206140  0.96017325  0.39448319     0.20400
C1187       C  0.55638510  0.96044106  0.37588251    -0.32900
C1188       C  0.54876159  0.98154230  0.36627843     0.01100
C1189       C  0.55661933  0.00258768  0.37600624    -0.24300
C1190       C  0.62289938  0.00176282  0.44800462    -0.28800
C1191       C  0.63175246  0.98051133  0.45623979     0.06700
C1192       C  0.62232786  0.95962122  0.44775052    -0.27500
H1193       H  0.60334860  0.03963985  0.42891239     0.11400
H1194       H  0.57456941  0.03999789  0.39757731     0.12600
H1195       H  0.60230188  0.92235900  0.42825432     0.11700
H1196       H  0.57365280  0.92271733  0.39690347     0.10900
H1197       H  0.55027930  0.94413168  0.36873967     0.16300
H1198       H  0.55066376  0.01895726  0.36893810     0.12200
H1199       H  0.62984800  0.01797278  0.45457558     0.15100
H1200       H  0.62882372  0.94315482  0.45408108     0.14800
C1201       C  0.77276250  0.93618830  0.38825053    -0.18100
C1202       C  0.75757225  0.93585686  0.40726820    -0.20200
C1203       C  0.75217467  0.95646368  0.41911927     0.20400
C1204       C  0.76243005  0.97753862  0.41193443    -0.03100
C1205       C  0.77784713  0.97782968  0.39288002    -0.06200
C1206       C  0.78289681  0.95711059  0.38087018     0.20700
C1207       C  0.78786493  0.99894974  0.38561569     0.18900
C1208       C  0.78255666  0.01955141  0.39748293    -0.17700
C1209       C  0.76730751  0.01927565  0.41635341    -0.19900
C1210       C  0.75707437  0.99840718  0.42359646     0.20400
C1211       C  0.74135204  0.99814547  0.44212099    -0.32900
C1212       C  0.73083807  0.97731044  0.44923304     0.01100
C1213       C  0.73649491  0.95646212  0.43781379    -0.24300
C1214       C  0.79793874  0.95770627  0.36167876    -0.28800
C1215       C  0.80861654  0.97862371  0.35462794     0.06700
C1216       C  0.80290330  0.99925590  0.36651367    -0.27500
H1217       H  0.77653780  0.92008752  0.37927651     0.11400
H1218       H  0.74989269  0.91951695  0.41258113     0.12600
H1219       H  0.79015809  0.03591333  0.39212371     0.11700
H1220       H  0.76338604  0.03542269  0.42518266     0.10900
H1221       H  0.73720144  0.01426281  0.45092278     0.16300
H1222       H  0.72847878  0.94031459  0.44325010     0.12200
H1223       H  0.80152432  0.94180264  0.35226269     0.15100
H1224       H  0.80942471  0.01585723  0.36080824     0.14800
C1225       C  0.90287982  0.85281082  0.67876828    -0.18100
C1226       C  0.88488291  0.86904856  0.67933593    -0.20200
C1227       C  0.88852124  0.89116841  0.68888324     0.20400
C1228       C  0.91018876  0.89666239  0.69881738    -0.03100
C1229       C  0.92835461  0.88018428  0.69836719    -0.06200
C1230       C  0.92477047  0.85837773  0.68785951     0.20700
C1231       C  0.95027629  0.88579243  0.70772690     0.18900
C1232       C  0.95354176  0.90759258  0.71818079    -0.17700
C1233       C  0.93557648  0.92399998  0.71847131    -0.19900
C1234       C  0.91396931  0.91888609  0.70840081     0.20400
C1235       C  0.89654493  0.93592761  0.70663617    -0.32900
C1236       C  0.87553256  0.93112230  0.69508718     0.01100
C1237       C  0.87124395  0.90821397  0.68756668    -0.24300
C1238       C  0.94330550  0.84279013  0.68587333    -0.28800
C1239       C  0.96569206  0.84870415  0.69381118     0.06700
C1240       C  0.96872276  0.86987657  0.70567028    -0.27500
H1241       H  0.89982601  0.83607719  0.67072461     0.11400
H1242       H  0.86831370  0.86453514  0.67168076     0.12600
H1243       H  0.97020001  0.91219793  0.72558140     0.11700
H1244       H  0.93878792  0.94091938  0.72604507     0.10900
H1245       H  0.90001602  0.95320226  0.71302821     0.16300
H1246       H  0.85478359  0.90382773  0.67962417     0.12200
H1247       H  0.94031642  0.82614155  0.67763687     0.15100
H1248       H  0.98553509  0.87449080  0.71245728     0.14800
C1249       C  0.77385308  0.93266887  0.57921391    -0.18100
C1250       C  0.79011161  0.93178118  0.59723588    -0.20200
C1251       C  0.79719435  0.95217319  0.60858799     0.20400
C1252       C  0.78810981  0.97370634  0.60134468    -0.03100
C1253       C  0.77177513  0.97462569  0.58307484    -0.06200
C1254       C  0.76439806  0.95396926  0.57216373     0.20700
C1255       C  0.76242143  0.99615674  0.57613343     0.18900
C1256       C  0.76973597  0.01657720  0.58723694    -0.17700
C1257       C  0.78571095  0.01562856  0.60547034    -0.19900
C1258       C  0.79478635  0.99426263  0.61279905     0.20400
C1259       C  0.80995768  0.99309511  0.63175413    -0.32900
C1260       C  0.81920073  0.97173042  0.63934020     0.01100
C1261       C  0.81268515  0.95129485  0.62742726    -0.24300
C1262       C  0.74734240  0.95492390  0.55477522    -0.28800
C1263       C  0.73755173  0.97628542  0.54809306     0.06700
C1264       C  0.74552271  0.99685829  0.55861570    -0.27500
H1265       H  0.76845280  0.91663820  0.57097911     0.11400
H1266       H  0.79690789  0.91507696  0.60251489     0.12600
H1267       H  0.76279666  0.03326261  0.58208435     0.11700
H1268       H  0.79077202  0.03160428  0.61402518     0.10900
H1269       H  0.81426706  0.00890776  0.64101898     0.16300
H1270       H  0.81862142  0.93450574  0.63319658     0.12200
H1271       H  0.74143752  0.93897805  0.54670498     0.15100
H1272       H  0.73815419  0.01340957  0.55359773     0.14800
C1273       C  0.95864968  0.04009401  0.70578475    -0.18100
C1274       C  0.94218139  0.02214445  0.70585318    -0.20200
C1275       C  0.91986105  0.02578552  0.69679350     0.20400
C1276       C  0.91403279  0.04790154  0.68796767    -0.03100
C1277       C  0.93063659  0.06596634  0.68785974    -0.06200
C1278       C  0.95310758  0.06200188  0.69662801     0.20700
C1279       C  0.92488753  0.08783924  0.67845579     0.18900
C1280       C  0.90248450  0.09167304  0.66982335    -0.17700
C1281       C  0.88604911  0.07383048  0.66996490    -0.19900
C1282       C  0.89175720  0.05186296  0.67872443     0.20400
C1283       C  0.87571443  0.03366484  0.67782043    -0.32900
C1284       C  0.88154902  0.01135465  0.68576426     0.01100
C1285       C  0.90347195  0.00762901  0.69577603    -0.24300
C1286       C  0.96976767  0.07982439  0.69550760    -0.28800
C1287       C  0.96439985  0.10140088  0.68544824     0.06700
C1288       C  0.94176215  0.10535097  0.67733199    -0.27500
H1289       H  0.97583636  0.03674460  0.71260925     0.11400
H1290       H  0.94700427  0.00532537  0.71271634     0.12600
H1291       H  0.89777129  0.10838670  0.66263771     0.11700
H1292       H  0.86896098  0.07711157  0.66287199     0.10900
H1293       H  0.85867484  0.03676152  0.67048967     0.16300
H1294       H  0.90812229  0.99051023  0.70183567     0.12200
H1295       H  0.98708398  0.07648068  0.70156374     0.15100
H1296       H  0.93735030  0.12204784  0.66988579     0.14800
C1297       C  0.78662651  0.96050344  0.79959453    -0.18100
C1298       C  0.80408311  0.95893514  0.78261798    -0.20200
C1299       C  0.80412855  0.97389620  0.76335686     0.20400
C1300       C  0.78694268  0.99130788  0.76180276    -0.03100
C1301       C  0.76930519  0.99284540  0.77888029    -0.06200
C1302       C  0.76884438  0.97704639  0.79764051     0.20700
C1303       C  0.75146052  0.00942122  0.77648853     0.18900
C1304       C  0.75195002  0.02501412  0.75778536    -0.17700
C1305       C  0.76940810  0.02353989  0.74095387    -0.19900
C1306       C  0.78661493  0.00640581  0.74252343     0.20400
C1307       C  0.80260251  0.00323299  0.72444379    -0.32900
C1308       C  0.81867758  0.98488253  0.72501397     0.01100
C1309       C  0.82010739  0.97091415  0.74497267    -0.24300
C1310       C  0.74997994  0.97729652  0.81331594    -0.28800
C1311       C  0.73145939  0.99281225  0.81002660     0.06700
C1312       C  0.73277784  0.00934006  0.79210310    -0.27500
H1313       H  0.78664830  0.94829391  0.81389901     0.11400
H1314       H  0.81716093  0.94553902  0.78420184     0.12600
H1315       H  0.73842370  0.03790703  0.75578905     0.11700
H1316       H  0.76900078  0.03531306  0.72628738     0.10900
H1317       H  0.80166493  0.01421259  0.70917372     0.16300
H1318       H  0.83244580  0.95673334  0.74542136     0.12200
H1319       H  0.74892946  0.96446057  0.82704164     0.15100
H1320       H  0.71860905  0.02147179  0.78967434     0.14800
C1321       C  0.60739016  0.02366204  0.59002920    -0.18100
C1322       C  0.58966857  0.02446215  0.60662152    -0.20200
C1323       C  0.57893050  0.00394316  0.61419039     0.20400
C1324       C  0.58618416  0.98237957  0.60508928    -0.03100
C1325       C  0.60405005  0.98157211  0.58837229    -0.06200
C1326       C  0.61460969  0.00233309  0.58075135     0.20700
C1327       C  0.61119284  0.96002261  0.57915096     0.18900
C1328       C  0.60054291  0.93949248  0.58681308    -0.17700
C1329       C  0.58282577  0.94029194  0.60341137    -0.19900
C1330       C  0.57552210  0.96163138  0.61260184     0.20400
C1331       C  0.55774701  0.96258077  0.62917878    -0.32900
C1332       C  0.55045818  0.98399903  0.63832759     0.01100
C1333       C  0.56107604  0.00461201  0.63070745    -0.24300
C1334       C  0.63197726  0.00143496  0.56374805    -0.28800
C1335       C  0.63888211  0.98006398  0.55420157     0.06700
C1336       C  0.62862615  0.95940648  0.56218887    -0.27500
H1337       H  0.61536242  0.03973939  0.58435407     0.11400
H1338       H  0.58431278  0.04113772  0.61348661     0.12600
H1339       H  0.60583886  0.92282445  0.57988241     0.11700
H1340       H  0.57479689  0.92422119  0.60902478     0.10900
H1341       H  0.54957870  0.94661907  0.63493607     0.16300
H1342       H  0.55554565  0.02118145  0.63771778     0.12200
H1343       H  0.63988108  0.01742932  0.55771925     0.15100
H1344       H  0.63389259  0.94286759  0.55490656     0.14800
C1345       C  0.39949635  0.94203586  0.58464434    -0.18100
C1346       C  0.41602500  0.94215834  0.60243069    -0.20200
C1347       C  0.42606673  0.96309836  0.60984615     0.20400
C1348       C  0.41952376  0.98409481  0.59908966    -0.03100
C1349       C  0.40285244  0.98397199  0.58115874    -0.06200
C1350       C  0.39270095  0.96285424  0.57399094     0.20700
C1351       C  0.39617053  0.00502092  0.57060000     0.18900
C1352       C  0.40642514  0.02591682  0.57778250    -0.17700
C1353       C  0.42293836  0.02603731  0.59552489    -0.19900
C1354       C  0.42948487  0.00526277  0.60636432     0.20400
C1355       C  0.44575442  0.00534179  0.62440412    -0.32900
C1356       C  0.45233053  0.98453883  0.63530036     0.01100
C1357       C  0.44245388  0.96344632  0.62786401    -0.24300
C1358       C  0.37570190  0.96298332  0.55655269    -0.28800
C1359       C  0.36856166  0.98398666  0.54633332     0.06700
C1360       C  0.37911449  0.00488254  0.55328158    -0.27500
H1361       H  0.39189911  0.92566295  0.57933423     0.11400
H1362       H  0.42087275  0.92587533  0.61046641     0.12600
H1363       H  0.40153413  0.04221069  0.56979708     0.11700
H1364       H  0.43049695  0.04241779  0.60086839     0.10900
H1365       H  0.45333414  0.02166232  0.62993065     0.16300
H1366       H  0.44743781  0.94731634  0.63614126     0.12200
H1367       H  0.36774338  0.94677248  0.55124473     0.15100
H1368       H  0.37387862  0.02112364  0.54538626     0.14800
C1369       C  0.58325766  0.94525625  0.77115962    -0.18100
C1370       C  0.60214223  0.94506036  0.78634077    -0.20200
C1371       C  0.61354362  0.96579566  0.79216299     0.20400
C1372       C  0.60566199  0.98697564  0.78282741    -0.03100
C1373       C  0.58654803  0.98719242  0.76752227    -0.06200
C1374       C  0.57544116  0.96618984  0.76155168     0.20700
C1375       C  0.57886774  0.00832764  0.75784835     0.18900
C1376       C  0.59023653  0.02906904  0.76376148    -0.17700
C1377       C  0.60931246  0.02881300  0.77877970    -0.19900
C1378       C  0.61726186  0.00783002  0.78824278     0.20400
C1379       C  0.63687087  0.00728810  0.80263543    -0.32900
C1380       C  0.64482350  0.98626658  0.81235771     0.01100
C1381       C  0.63300874  0.96554979  0.80671643    -0.24300
C1382       C  0.55697311  0.96639026  0.74577147    -0.28800
C1383       C  0.54936098  0.98730431  0.73580000     0.06700
C1384       C  0.56025467  0.00826726  0.74212412    -0.27500
H1385       H  0.57489564  0.92898609  0.76675841     0.11400
H1386       H  0.60797459  0.92863348  0.79336227     0.12600
H1387       H  0.58455987  0.04546216  0.75653854     0.11700
H1388       H  0.61797208  0.04501614  0.78284322     0.10900
H1389       H  0.64619723  0.02327790  0.80603959     0.16300
H1390       H  0.63929487  0.94894267  0.81263764     0.12200
H1391       H  0.54871127  0.95015491  0.74102732     0.15100
H1392       H  0.55457158  0.02447196  0.73447112     0.14800
C1393       C  0.39068808  0.94573951  0.77923083    -0.18100
C1394       C  0.40931633  0.94559607  0.76364274    -0.20200
C1395       C  0.41949077  0.96650841  0.75638334     0.20400
C1396       C  0.41077400  0.98779160  0.76479112    -0.03100
C1397       C  0.39209649  0.98791216  0.78067560    -0.06200
C1398       C  0.38204469  0.96678893  0.78790724     0.20700
C1399       C  0.38335200  0.00914890  0.78911926     0.18900
C1400       C  0.39315937  0.03009822  0.78137660    -0.17700
C1401       C  0.41167970  0.02999094  0.76561344    -0.19900
C1402       C  0.42067562  0.00893529  0.75730727     0.20400
C1403       C  0.43934833  0.00863390  0.74162851    -0.32900
C1404       C  0.44825195  0.98745095  0.73337504     0.01100
C1405       C  0.43818560  0.96648141  0.74081667    -0.24300
C1406       C  0.36345404  0.96703687  0.80360508    -0.28800
C1407       C  0.35499969  0.98805178  0.81283673     0.06700
C1408       C  0.36484831  0.00911240  0.80500404    -0.27500
H1409       H  0.38310080  0.92936963  0.78458251     0.11400
H1410       H  0.41576370  0.92911954  0.75725510     0.12600
H1411       H  0.38655523  0.04658240  0.78757861     0.11700
H1412       H  0.41900210  0.04638050  0.75996040     0.10900
H1413       H  0.44692126  0.02487789  0.73585464     0.16300
H1414       H  0.44480613  0.95007701  0.73439104     0.12200
H1415       H  0.35541933  0.95076487  0.80862096     0.15100
H1416       H  0.35786455  0.02561681  0.81048843     0.14800
C1417       C  0.35116790  0.92837234  0.92879857    -0.18100
C1418       C  0.35078688  0.91119873  0.94592860    -0.20200
C1419       C  0.33123676  0.89690980  0.94868581     0.20400
C1420       C  0.31152521  0.90048435  0.93463534    -0.03100
C1421       C  0.31189738  0.91786656  0.91734143    -0.06200
C1422       C  0.33198922  0.93155732  0.91418133     0.20700
C1423       C  0.29243099  0.92113820  0.90284780     0.18900
C1424       C  0.27260197  0.90731400  0.90615832    -0.17700
C1425       C  0.27224537  0.89004719  0.92329409    -0.19900
C1426       C  0.29170763  0.88629480  0.93744051     0.20400
C1427       C  0.29200220  0.86820930  0.95384871    -0.32900
C1428       C  0.31201920  0.86393439  0.96709005     0.01100
C1429       C  0.33133273  0.87869957  0.96479227    -0.24300
C1430       C  0.33278257  0.94782088  0.89612716    -0.28800
C1431       C  0.31374871  0.95071440  0.88118802     0.06700
C1432       C  0.29340018  0.93775115  0.88496981    -0.27500
H1433       H  0.36663902  0.93889109  0.92670519     0.11400
H1434       H  0.36597622  0.90878402  0.95672050     0.12600
H1435       H  0.25748411  0.90960965  0.89524362     0.11700
H1436       H  0.25686400  0.87937270  0.92523239     0.10900
H1437       H  0.27706527  0.85687747  0.95562299     0.16300
H1438       H  0.34660362  0.87578432  0.97536265     0.12200
H1439       H  0.34832143  0.95815657  0.89356001     0.15100
H1440       H  0.27869449  0.93998511  0.87347459     0.14800
C1441       C  0.28666709  0.93309079  0.06668392    -0.18100
C1442       C  0.28578460  0.91603303  0.04938008    -0.20200
C1443       C  0.29075843  0.89279423  0.05469355     0.20400
C1444       C  0.29579786  0.88654835  0.07785364    -0.03100
C1445       C  0.29676780  0.90375133  0.09527920    -0.06200
C1446       C  0.29258965  0.92719500  0.08957357     0.20700
C1447       C  0.30297698  0.89761628  0.11816934     0.18900
C1448       C  0.30722982  0.87429900  0.12366289    -0.17700
C1449       C  0.30620441  0.85725452  0.10642196    -0.19900
C1450       C  0.30095940  0.86328324  0.08342079     0.20400
C1451       C  0.30197666  0.84665944  0.06571718    -0.32900
C1452       C  0.29853329  0.85304266  0.04240444     0.01100
C1453       C  0.29203630  0.87594333  0.03710177    -0.24300
C1454       C  0.29554104  0.94441460  0.10657335    -0.28800
C1455       C  0.30295521  0.93847641  0.12905607     0.06700
C1456       C  0.30587123  0.91499782  0.13491827    -0.27500
H1457       H  0.28333622  0.95099568  0.06202671     0.11400
H1458       H  0.28181107  0.92111818  0.03171410     0.12600
H1459       H  0.31194644  0.86932461  0.14117547     0.11700
H1460       H  0.31016784  0.83944691  0.11095199     0.10900
H1461       H  0.30658737  0.82892203  0.06994285     0.16300
H1462       H  0.28955672  0.88105161  0.01916349     0.12200
H1463       H  0.29349900  0.96250605  0.10186329     0.15100
H1464       H  0.31124205  0.91033280  0.15233666     0.14800
C1465       C  0.06234773  0.69967591  0.05159104    -0.18100
C1466       C  0.04527499  0.70057127  0.06894385    -0.20200
C1467       C  0.05065394  0.69453248  0.09194315     0.20400
C1468       C  0.07365653  0.68851060  0.09767976    -0.03100
C1469       C  0.09090083  0.68776692  0.08022187    -0.06200
C1470       C  0.08512002  0.69289322  0.05698089     0.20700
C1471       C  0.11368307  0.68090271  0.08588290     0.18900
C1472       C  0.11926880  0.67574888  0.10901999    -0.17700
C1473       C  0.10216153  0.67633991  0.12627205    -0.19900
C1474       C  0.07921998  0.68216243  0.12066408     0.20400
C1475       C  0.06152345  0.68037799  0.13730905    -0.32900
C1476       C  0.03824799  0.68454358  0.13126681     0.01100
C1477       C  0.03320758  0.69302915  0.10897119    -0.24300
C1478       C  0.10193492  0.69015747  0.03945045    -0.28800
C1479       C  0.12432617  0.68206750  0.04479736     0.06700
C1480       C  0.13024589  0.67833390  0.06820782    -0.27500
H1481       H  0.05760175  0.70374496  0.03385234     0.11400
H1482       H  0.02769591  0.70525886  0.06423100     0.12600
H1483       H  0.13672647  0.67057235  0.11365899     0.11700
H1484       H  0.10673256  0.67155378  0.14387499     0.10900
H1485       H  0.06569532  0.67450775  0.15469503     0.16300
H1486       H  0.01560074  0.69687290  0.10429675     0.12200
H1487       H  0.09714321  0.69313795  0.02161225     0.15100
H1488       H  0.14761262  0.67266562  0.07263109     0.14800
C1489       C  0.11242546  0.64544689  0.90538932    -0.18100
C1490       C  0.09565128  0.64471547  0.88793742    -0.20200
C1491       C  0.07446733  0.65636891  0.89079132     0.20400
C1492       C  0.07020467  0.66910761  0.91125512    -0.03100
C1493       C  0.08716306  0.66984335  0.92890777    -0.06200
C1494       C  0.10826956  0.65783339  0.92596560     0.20700
C1495       C  0.08295479  0.68243961  0.94951325     0.18900
C1496       C  0.06186091  0.69437737  0.95213716    -0.17700
C1497       C  0.04504344  0.69367738  0.93459237    -0.19900
C1498       C  0.04899300  0.68099880  0.91411415     0.20400
C1499       C  0.03198398  0.67964631  0.89665727    -0.32900
C1500       C  0.03563583  0.66601416  0.87668642     0.01100
C1501       C  0.05736832  0.65515235  0.87364359    -0.24300
C1502       C  0.12477241  0.65811202  0.94374326    -0.28800
C1503       C  0.12048303  0.66987941  0.96478600     0.06700
C1504       C  0.09974192  0.68255004  0.96723240    -0.27500
H1505       H  0.12857314  0.63613885  0.90288094     0.11400
H1506       H  0.09916211  0.63484350  0.87229050     0.12600
H1507       H  0.05828930  0.70412106  0.96784706     0.11700
H1508       H  0.02884509  0.70288262  0.93713962     0.10900
H1509       H  0.01585994  0.68880251  0.89900921     0.16300
H1510       H  0.06108052  0.64554038  0.85789046     0.12200
H1511       H  0.14102442  0.64903208  0.94111247     0.15100
H1512       H  0.09630326  0.69202277  0.98302691     0.14800
C1513       C  0.23335339  0.57446655  0.05057059    -0.18100
C1514       C  0.21834170  0.59359100  0.05031295    -0.20200
C1515       C  0.20991809  0.60239521  0.02920326     0.20400
C1516       C  0.21712523  0.59209621  0.00815529    -0.03100
C1517       C  0.23216195  0.57273215  0.00840774    -0.06200
C1518       C  0.24020167  0.56375901  0.02972483     0.20700
C1519       C  0.23916246  0.56239999  0.98729962     0.18900
C1520       C  0.23145594  0.57170163  0.96617019    -0.17700
C1521       C  0.21682088  0.59102239  0.96592551    -0.19900
C1522       C  0.20944629  0.60122079  0.98681225     0.20400
C1523       C  0.19443941  0.62031627  0.98664636    -0.32900
C1524       C  0.18585285  0.62993320  0.00750478     0.01100
C1525       C  0.19439961  0.62123918  0.02877394    -0.24300
C1526       C  0.25505615  0.54438136  0.02977096    -0.28800
C1527       C  0.26201905  0.53391667  0.00874119     0.06700
C1528       C  0.25390913  0.54307828  0.98761791    -0.27500
H1529       H  0.23950608  0.56796809  0.06710155     0.11400
H1530       H  0.21319378  0.60140187  0.06665727     0.12600
H1531       H  0.23677578  0.56404304  0.94980764     0.11700
H1532       H  0.21109456  0.59786739  0.94937787     0.10900
H1533       H  0.18923836  0.62759829  0.97010966     0.16300
H1534       H  0.18946119  0.62925735  0.04503427     0.12200
H1535       H  0.26143946  0.53767058  0.04613696     0.15100
H1536       H  0.25930788  0.53533708  0.97130966     0.14800
C1537       C  0.24223676  0.75340895  0.95223587    -0.18100
C1538       C  0.22476076  0.73658256  0.95286859    -0.20200
C1539       C  0.20916165  0.73568450  0.97159896     0.20400
C1540       C  0.21024948  0.75271419  0.98920017    -0.03100
C1541       C  0.22786311  0.76978565  0.98851041    -0.06200
C1542       C  0.24433023  0.76962558  0.97029286     0.20700
C1543       C  0.22994066  0.78598514  0.00682138     0.18900
C1544       C  0.21370735  0.78562078  0.02505966    -0.17700
C1545       C  0.19630129  0.76861726  0.02579890    -0.19900
C1546       C  0.19477508  0.75172054  0.00827330     0.20400
C1547       C  0.17922393  0.73294559  0.01025042    -0.32900
C1548       C  0.17943631  0.71510817  0.99361522     0.01100
C1549       C  0.19365179  0.71710246  0.97387435    -0.24300
C1550       C  0.26348273  0.78458914  0.97127038    -0.28800
C1551       C  0.26640759  0.79968024  0.99018996     0.06700
C1552       C  0.24909497  0.80113937  0.00734807    -0.27500
H1553       H  0.25465061  0.75318559  0.93806213     0.11400
H1554       H  0.22403002  0.72369239  0.93917235     0.12600
H1555       H  0.21499727  0.79795634  0.03921491     0.11700
H1556       H  0.18454216  0.76819256  0.04051292     0.10900
H1557       H  0.16840913  0.73120206  0.02559859     0.16300
H1558       H  0.19379552  0.70322250  0.96113080     0.12200
H1559       H  0.27691742  0.78352383  0.95807555     0.15100
H1560       H  0.25154998  0.81264513  0.02205808     0.14800
C1561       C  0.34843490  0.03394819  0.06872769    -0.18100
C1562       C  0.34775155  0.05152463  0.05208240    -0.20200
C1563       C  0.32955909  0.06765409  0.05210240     0.20400
C1564       C  0.31143795  0.06571120  0.06853911    -0.03100
C1565       C  0.31213115  0.04796959  0.08534234    -0.06200
C1566       C  0.33094679  0.03228806  0.08562415     0.20700
C1567       C  0.29436122  0.04628752  0.10220490     0.18900
C1568       C  0.27586780  0.06212918  0.10182254    -0.17700
C1569       C  0.27518443  0.07977404  0.08512701    -0.19900
C1570       C  0.29297071  0.08183267  0.06854061     0.20400
C1571       C  0.29299076  0.10000433  0.05230644    -0.32900
C1572       C  0.31150372  0.10236610  0.03661722     0.01100
C1573       C  0.32948936  0.08602958  0.03632094    -0.24300
C1574       C  0.33229419  0.01561289  0.10317525    -0.28800
C1575       C  0.31503423  0.01429275  0.12032046     0.06700
C1576       C  0.29579547  0.02919061  0.11948757    -0.27500
H1577       H  0.36286845  0.02190796  0.06865081     0.11400
H1578       H  0.36166604  0.05274933  0.03943646     0.12600
H1579       H  0.26210369  0.06107562  0.11464491     0.11700
H1580       H  0.26090615  0.09199535  0.08537903     0.10900
H1581       H  0.27915856  0.11275390  0.05239055     0.16300
H1582       H  0.34358352  0.08785769  0.02391790     0.12200
H1583       H  0.34692124  0.00379441  0.10372408     0.15100
H1584       H  0.28249739  0.02804823  0.13280950     0.14800
C1585       C  0.28962824  0.04747132  0.95386095    -0.18100
C1586       C  0.28977690  0.03065227  0.93633278    -0.20200
C1587       C  0.29466412  0.03688905  0.91326805     0.20400
C1588       C  0.29880100  0.06038490  0.90767127    -0.03100
C1589       C  0.29864922  0.07732206  0.92532069    -0.06200
C1590       C  0.29436387  0.07077498  0.94858094     0.20700
C1591       C  0.30369484  0.10065180  0.91980549     0.18900
C1592       C  0.30811677  0.10699259  0.89669994    -0.17700
C1593       C  0.30827853  0.09019952  0.87920661    -0.19900
C1594       C  0.30401231  0.06684406  0.88458743     0.20400
C1595       C  0.30582037  0.04972287  0.86746233    -0.32900
C1596       C  0.30276024  0.02622002  0.87314282     0.01100
C1597       C  0.29651172  0.01994819  0.89589180    -0.24300
C1598       C  0.29589008  0.08747251  0.96622852    -0.28800
C1599       C  0.30195757  0.11045745  0.96085232     0.06700
C1600       C  0.30516550  0.11707403  0.93760136    -0.27500
H1601       H  0.28629790  0.04217567  0.97162028     0.11400
H1602       H  0.28656064  0.01268793  0.94089419     0.12600
H1603       H  0.31197117  0.12485874  0.89223921     0.11700
H1604       H  0.31225763  0.09539927  0.86155109     0.10900
H1605       H  0.31041807  0.05457799  0.84984251     0.16300
H1606       H  0.29445915  0.00179580  0.90039951     0.12200
H1607       H  0.29368307  0.08230102  0.98420609     0.15100
H1608       H  0.30958560  0.13490346  0.93346523     0.14800
C1609       C  0.06925338  0.25226482  0.08166256    -0.18100
C1610       C  0.08631858  0.25259940  0.06422784    -0.20200
C1611       C  0.09386012  0.27372594  0.05461195     0.20400
C1612       C  0.08376639  0.29464233  0.06239388    -0.03100
C1613       C  0.06662364  0.29430733  0.07994442    -0.06200
C1614       C  0.05942235  0.27305018  0.08980966     0.20700
C1615       C  0.05685563  0.31533033  0.08774395     0.18900
C1616       C  0.06410389  0.33643794  0.07802105    -0.17700
C1617       C  0.08102103  0.33676632  0.06067469    -0.19900
C1618       C  0.09095088  0.31599496  0.05281840     0.20400
C1619       C  0.10817274  0.31636536  0.03574699    -0.32900
C1620       C  0.11916781  0.29580355  0.02851282     0.01100
C1621       C  0.11160243  0.27442469  0.03774423    -0.24300
C1622       C  0.04287183  0.27307408  0.10788396    -0.28800
C1623       C  0.03343578  0.29411945  0.11603552     0.06700
C1624       C  0.04015138  0.31503591  0.10531797    -0.27500
H1625       H  0.06390528  0.23575511  0.08892914     0.11400
H1626       H  0.09377580  0.23633953  0.05842176     0.12600
H1627       H  0.05679359  0.35272526  0.08394967     0.11700
H1628       H  0.08647426  0.35329855  0.05352482     0.10900
H1629       H  0.11303047  0.33288155  0.02819131     0.16300
H1630       H  0.11992409  0.25843202  0.03243699     0.12200
H1631       H  0.03790696  0.25683567  0.11596720     0.15100
H1632       H  0.03240370  0.33131994  0.11060593     0.14800
C1633       C  0.04698306  0.26675919  0.93360087    -0.18100
C1634       C  0.06487197  0.26787932  0.94995201    -0.20200
C1635       C  0.08759713  0.27341772  0.94301751     0.20400
C1636       C  0.09260372  0.27678140  0.91926974    -0.03100
C1637       C  0.07456053  0.27558001  0.90276002    -0.06200
C1638       C  0.05154187  0.27112900  0.91005100     0.20700
C1639       C  0.07934481  0.28013589  0.87916398     0.18900
C1640       C  0.10225920  0.28457504  0.87208264    -0.17700
C1641       C  0.12013664  0.28578302  0.88844940    -0.19900
C1642       C  0.11538097  0.28255046  0.91214871     0.20400
C1643       C  0.13272638  0.28597637  0.92891879    -0.32900
C1644       C  0.12755794  0.28369797  0.95268822     0.01100
C1645       C  0.10512502  0.27674060  0.95952136    -0.24300
C1646       C  0.03333980  0.27258940  0.89394324    -0.28800
C1647       C  0.03784177  0.27893475  0.87084064     0.06700
C1648       C  0.06096529  0.28159609  0.86333635    -0.27500
H1649       H  0.02945048  0.26320917  0.93948285     0.11400
H1650       H  0.06079380  0.26511078  0.96812865     0.12600
H1651       H  0.10622685  0.28791692  0.85397998     0.11700
H1652       H  0.13755161  0.28997318  0.88264694     0.10900
H1653       H  0.15006859  0.29099224  0.92354232     0.16300
H1654       H  0.10086152  0.27519944  0.97780117     0.12200
H1655       H  0.01561612  0.27060051  0.89980758     0.15100
H1656       H  0.06451311  0.28612785  0.84539215     0.14800
C1657       C  0.23566964  0.39626014  0.95667867    -0.18100
C1658       C  0.22024526  0.37756353  0.95466867    -0.20200
C1659       C  0.21220810  0.36592568  0.97454787     0.20400
C1660       C  0.22017752  0.37300995  0.99663424    -0.03100
C1661       C  0.23554954  0.39203051  0.99869280    -0.06200
C1662       C  0.24321887  0.40377414  0.97861420     0.20700
C1663       C  0.24315467  0.39932929  0.02084246     0.18900
C1664       C  0.23571648  0.38724687  0.04066919    -0.17700
C1665       C  0.22077767  0.36821075  0.03859603    -0.19900
C1666       C  0.21284281  0.36107917  0.01668267     0.20400
C1667       C  0.19767379  0.34222805  0.01453599    -0.32900
C1668       C  0.18869629  0.33550229  0.99273724     0.01100
C1669       C  0.19639577  0.34735967  0.97271783    -0.24300
C1670       C  0.25819381  0.42288605  0.98081932    -0.28800
C1671       C  0.26551676  0.43059629  0.00286375     0.06700
C1672       C  0.25800326  0.41858900  0.02278940    -0.27500
H1673       H  0.24152797  0.40499549  0.94106162     0.11400
H1674       H  0.21452369  0.37227006  0.93754765     0.12600
H1675       H  0.24143925  0.39253012  0.05779391     0.11700
H1676       H  0.21526972  0.35917270  0.05417031     0.10900
H1677       H  0.19260692  0.33277548  0.03002563     0.16300
H1678       H  0.19070049  0.34200109  0.95566886     0.12200
H1679       H  0.26405509  0.43183514  0.96531548     0.15100
H1680       H  0.26375781  0.42417437  0.03981705     0.14800
C1681       C  0.21867017  0.18277116  0.96938434    -0.18100
C1682       C  0.20163641  0.20002990  0.96832529    -0.20200
C1683       C  0.19827187  0.21523961  0.98708771     0.20400
C1684       C  0.21157478  0.21246941  0.00748717    -0.03100
C1685       C  0.22865875  0.19504865  0.00858503    -0.06200
C1686       C  0.23254775  0.18042544  0.98924840     0.20700
C1687       C  0.24284801  0.19326751  0.02847303     0.18900
C1688       C  0.23925097  0.20815767  0.04739816    -0.17700
C1689       C  0.22237376  0.22545443  0.04628414    -0.19900
C1690       C  0.20884698  0.22804315  0.02624968     0.20400
C1691       C  0.19376212  0.24685595  0.02405280    -0.32900
C1692       C  0.18150391  0.25033033  0.00337661     0.01100
C1693       C  0.18299997  0.23409428  0.98529105    -0.24300
C1694       C  0.25124263  0.16485588  0.98958516    -0.28800
C1695       C  0.26615197  0.16426577  0.00878600     0.06700
C1696       C  0.26143037  0.17775350  0.02845993    -0.27500
H1697       H  0.22146664  0.17172334  0.95439778     0.11400
H1698       H  0.19160845  0.20195955  0.95254578     0.12600
H1699       H  0.25003526  0.20694314  0.06274553     0.11700
H1700       H  0.22041842  0.23728793  0.06079496     0.10900
H1701       H  0.19265699  0.25970222  0.03779947     0.16300
H1702       H  0.17375225  0.23720735  0.96920443     0.12200
H1703       H  0.25535558  0.15466715  0.97426839     0.15100
H1704       H  0.27329424  0.17734259  0.04306259     0.14800
C1705       C  0.40947782  0.38099906  0.96299503    -0.18100
C1706       C  0.39246314  0.39829266  0.96342120    -0.20200
C1707       C  0.38583032  0.40862738  0.98449951     0.20400
C1708       C  0.39642864  0.40144860  0.00536760    -0.03100
C1709       C  0.41362104  0.38401023  0.00493440    -0.06200
C1710       C  0.42016409  0.37376249  0.98363647     0.20700
C1711       C  0.42419504  0.37680128  0.02580757     0.18900
C1712       C  0.41754316  0.38711727  0.04688493    -0.17700
C1713       C  0.40049391  0.40437941  0.04731697    -0.19900
C1714       C  0.38980674  0.41162672  0.02667903     0.20400
C1715       C  0.37255347  0.42878984  0.02700265    -0.32900
C1716       C  0.36188132  0.43603339  0.00628316     0.01100
C1717       C  0.36871510  0.42592228  0.98508272    -0.24300
C1718       C  0.43722293  0.35642352  0.98334845    -0.28800
C1719       C  0.44780901  0.34908423  0.00408561     0.06700
C1720       C  0.44117883  0.35937493  0.02525296    -0.27500
H1721       H  0.41427772  0.37327336  0.94650384     0.11400
H1722       H  0.38446477  0.40356760  0.94725088     0.12600
H1723       H  0.42550046  0.38179929  0.06306132     0.11700
H1724       H  0.39562865  0.41203588  0.06382008     0.10900
H1725       H  0.36744113  0.43651348  0.04341050     0.16300
H1726       H  0.36052752  0.43131745  0.96903677     0.12200
H1727       H  0.44213801  0.34853419  0.96695872     0.15100
H1728       H  0.44922702  0.35383027  0.04131808     0.14800
C1729       C  0.40683372  0.21994617  0.95918843    -0.18100
C1730       C  0.38858874  0.20400122  0.95896918    -0.20200
C1731       C  0.37898535  0.19598191  0.97989767     0.20400
C1732       C  0.38750479  0.20436556  0.00124677    -0.03100
C1733       C  0.40584903  0.22047125  0.00147927    -0.06200
C1734       C  0.41564474  0.22814427  0.98033556     0.20700
C1735       C  0.41440090  0.22885021  0.02284475     0.18900
C1736       C  0.40430136  0.22138098  0.04374349    -0.17700
C1737       C  0.38595455  0.20551565  0.04348930    -0.19900
C1738       C  0.37758655  0.19680691  0.02234162     0.20400
C1739       C  0.35946279  0.18067879  0.02192243    -0.32900
C1740       C  0.35147426  0.17141632  0.00075209     0.01100
C1741       C  0.36093264  0.17979695  0.97977476    -0.24300
C1742       C  0.43410099  0.24386725  0.98069653    -0.28800
C1743       C  0.44287451  0.25202343  0.00190948     0.06700
C1744       C  0.43290950  0.24454212  0.02291906    -0.27500
H1745       H  0.41411064  0.22579783  0.94282847     0.11400
H1746       H  0.38209631  0.19781371  0.94243115     0.12600
H1747       H  0.41062178  0.22776979  0.06027227     0.11700
H1748       H  0.37842376  0.19992889  0.05982764     0.10900
H1749       H  0.35147905  0.17533881  0.03813608     0.16300
H1750       H  0.35399219  0.17444931  0.96320035     0.12200
H1751       H  0.44165259  0.24971040  0.96444535     0.15100
H1752       H  0.43953035  0.25092917  0.03934180     0.14800
C1753       C  0.89598752  0.30829899  0.88263538    -0.18100
C1754       C  0.87875763  0.30922429  0.89970743    -0.20200
C1755       C  0.88233309  0.29881534  0.92140984     0.20400
C1756       C  0.90303797  0.28648832  0.92564310    -0.03100
C1757       C  0.92053538  0.28569929  0.90844767    -0.06200
C1758       C  0.91709517  0.29705736  0.88706003     0.20700
C1759       C  0.94169915  0.27421325  0.91290505     0.18900
C1760       C  0.94471785  0.26276585  0.93422369    -0.17700
C1761       C  0.92725052  0.26337249  0.95122632    -0.19900
C1762       C  0.90652232  0.27556674  0.94726447     0.20400
C1763       C  0.88958730  0.27775473  0.96476701    -0.32900
C1764       C  0.86974294  0.29158757  0.96125608     0.01100
C1765       C  0.86589342  0.30125852  0.93917784    -0.24300
C1766       C  0.93509441  0.29776114  0.87075712    -0.28800
C1767       C  0.95682354  0.28775420  0.87559121     0.06700
C1768       C  0.95969046  0.27514291  0.89631569    -0.27500
H1769       H  0.89305327  0.31694015  0.86619119     0.11400
H1770       H  0.86284884  0.31855894  0.89612521     0.12600
H1771       H  0.96077689  0.25374604  0.93793816     0.11700
H1772       H  0.93020422  0.25480477  0.96770581     0.10900
H1773       H  0.89241179  0.26939866  0.98129374     0.16300
H1774       H  0.85020949  0.31106519  0.93587114     0.12200
H1775       H  0.93231285  0.30666740  0.85442288     0.15100
H1776       H  0.97611398  0.26692249  0.90001812     0.14800
C1777       C  0.93407034  0.28005170  0.04354248    -0.18100
C1778       C  0.95153087  0.27884064  0.06033430    -0.20200
C1779       C  0.94586837  0.27923742  0.08405680     0.20400
C1780       C  0.92232939  0.28008424  0.09094289    -0.03100
C1781       C  0.90470799  0.28115001  0.07399977    -0.06200
C1782       C  0.91066843  0.28155232  0.05021061     0.20700
C1783       C  0.88122366  0.28295544  0.08088460     0.18900
C1784       C  0.87552804  0.28277611  0.10459581    -0.17700
C1785       C  0.89300069  0.28182683  0.12139514    -0.19900
C1786       C  0.91643665  0.28097197  0.11474506     0.20400
C1787       C  0.93409715  0.28211721  0.13141095    -0.32900
C1788       C  0.95751393  0.28225722  0.12457301     0.01100
C1789       C  0.96332662  0.27998028  0.10098068    -0.24300
C1790       C  0.89322278  0.28451937  0.03356696    -0.28800
C1791       C  0.86997064  0.28708412  0.04034916     0.06700
C1792       C  0.86398200  0.28589889  0.06397232    -0.27500
H1793       H  0.93889935  0.28030125  0.02533541     0.11400
H1794       H  0.96950290  0.27820474  0.05476733     0.12600
H1795       H  0.85758898  0.28400269  0.11016105     0.11700
H1796       H  0.88820758  0.28236354  0.13960164     0.10900
H1797       H  0.92968650  0.28377603  0.14966189     0.16300
H1798       H  0.98141200  0.28034511  0.09571037     0.12200
H1799       H  0.89793228  0.28637746  0.01549861     0.15100
H1800       H  0.84600196  0.28805831  0.06915586     0.14800
C1801       C  0.65117781  0.05432753  0.05900077    -0.18100
C1802       C  0.65262250  0.03658189  0.07534584    -0.20200
C1803       C  0.67275975  0.03387788  0.08865219     0.20400
C1804       C  0.69196866  0.04867643  0.08507911    -0.03100
C1805       C  0.69053181  0.06659968  0.06846888    -0.06200
C1806       C  0.66987742  0.06955368  0.05570451     0.20700
C1807       C  0.70940445  0.08193756  0.06510775     0.18900
C1808       C  0.72977943  0.07871495  0.07809082    -0.17700
C1809       C  0.73116669  0.06094766  0.09471565    -0.19900
C1810       C  0.71223015  0.04603098  0.09861272     0.20400
C1811       C  0.71270348  0.02914014  0.11633231    -0.32900
C1812       C  0.69302027  0.01531896  0.12056873     0.01100
C1813       C  0.67356611  0.01719705  0.10612108    -0.24300
C1814       C  0.66792330  0.08808177  0.04030642    -0.28800
C1815       C  0.68614360  0.10401825  0.03751474     0.06700
C1816       C  0.70717686  0.10055152  0.04936563    -0.27500
H1817       H  0.63525874  0.05641605  0.04923631     0.11400
H1818       H  0.63778580  0.02528599  0.07794920     0.12600
H1819       H  0.74448212  0.09022553  0.07572020     0.11700
H1820       H  0.74689500  0.05915726  0.10483337     0.10900
H1821       H  0.72776204  0.02752184  0.12746821     0.16300
H1822       H  0.65858049  0.00617084  0.10917279     0.12200
H1823       H  0.65192080  0.09039624  0.03069392     0.15100
H1824       H  0.72130735  0.11278226  0.04703572     0.14800
C1825       C  0.67414163  0.08789375  0.88062503    -0.18100
C1826       C  0.67273747  0.10448845  0.89826786    -0.20200
C1827       C  0.68190661  0.09982125  0.92032250     0.20400
C1828       C  0.69331291  0.07857872  0.92446420    -0.03100
C1829       C  0.69479976  0.06184177  0.90660586    -0.06200
C1830       C  0.68477135  0.06640387  0.88476842     0.20700
C1831       C  0.70557597  0.04026518  0.91083950     0.18900
C1832       C  0.71540262  0.03595464  0.93271275    -0.17700
C1833       C  0.71383695  0.05252460  0.95047482    -0.19900
C1834       C  0.70250839  0.07374052  0.94664713     0.20400
C1835       C  0.69946008  0.08983434  0.96477117    -0.32900
C1836       C  0.68722762  0.11058921  0.96094211     0.01100
C1837       C  0.67916583  0.11572802  0.93848445    -0.24300
C1838       C  0.68461199  0.04904596  0.86777446    -0.28800
C1839       C  0.69390288  0.02692134  0.87234592     0.06700
C1840       C  0.70536622  0.02304036  0.89350547    -0.27500
H1841       H  0.66642390  0.09165699  0.86389999     0.11400
H1842       H  0.66399792  0.12076484  0.89482003     0.12600
H1843       H  0.72379195  0.01952188  0.93627106     0.11700
H1844       H  0.72108660  0.04854874  0.96735685     0.10900
H1845       H  0.70563420  0.08569088  0.98204283     0.16300
H1846       H  0.67025620  0.13195738  0.93522763     0.12200
H1847       H  0.67645265  0.05251588  0.85118710     0.15100
H1848       H  0.71297714  0.00630986  0.89702832     0.14800
C1849       C  0.60776679  0.20953658  0.96221259    -0.18100
C1850       C  0.58908809  0.22497899  0.96169802    -0.20200
C1851       C  0.57424178  0.22704144  0.98094430     0.20400
C1852       C  0.57786964  0.21297434  0.00066701    -0.03100
C1853       C  0.59657272  0.19720277  0.00106666    -0.06200
C1854       C  0.61177338  0.19579427  0.98190809     0.20700
C1855       C  0.60045056  0.18338313  0.02089295     0.18900
C1856       C  0.58531241  0.18513482  0.03996886    -0.17700
C1857       C  0.56687810  0.20090374  0.03965893    -0.19900
C1858       C  0.56320813  0.21510961  0.02022821     0.20400
C1859       C  0.54551887  0.23180586  0.02023126    -0.32900
C1860       C  0.54215265  0.24621215  0.00083109     0.01100
C1861       C  0.55623984  0.24336786  0.98105768    -0.24300
C1862       C  0.63105722  0.18111421  0.98296470    -0.28800
C1863       C  0.63541838  0.16741187  0.00276081     0.06700
C1864       C  0.61972763  0.16853198  0.02160482    -0.27500
H1865       H  0.61925628  0.20855096  0.94731024     0.11400
H1866       H  0.58651020  0.23562130  0.94641036     0.12600
H1867       H  0.58797013  0.17459198  0.05531130     0.11700
H1868       H  0.55568949  0.20222541  0.05476054     0.10900
H1869       H  0.53454271  0.23377883  0.03543142     0.16300
H1870       H  0.55373714  0.25444626  0.96605516     0.12200
H1871       H  0.64308810  0.18064070  0.96844907     0.15100
H1872       H  0.62265565  0.15876466  0.03729201     0.14800
C1873       C  0.76008352  0.23430878  0.95973286    -0.18100
C1874       C  0.74273746  0.21738606  0.96023580    -0.20200
C1875       C  0.74172306  0.20133673  0.97850899     0.20400
C1876       C  0.75875180  0.20176633  0.99608782    -0.03100
C1877       C  0.77629047  0.21886751  0.99557469    -0.06200
C1878       C  0.77664302  0.23542201  0.97750411     0.20700
C1879       C  0.79276997  0.22009018  0.01367812     0.18900
C1880       C  0.79190632  0.20373985  0.03173992    -0.17700
C1881       C  0.77448652  0.18674455  0.03224488    -0.19900
C1882       C  0.75763043  0.18579688  0.01469251     0.20400
C1883       C  0.73907307  0.16993630  0.01590467    -0.32900
C1884       C  0.72160488  0.17034160  0.99897379     0.01100
C1885       C  0.72334461  0.18558086  0.98005874    -0.24300
C1886       C  0.79275094  0.25355440  0.97816524    -0.28800
C1887       C  0.80838678  0.25550777  0.99669089     0.06700
C1888       C  0.80897669  0.23836414  0.01398061    -0.27500
H1889       H  0.76018669  0.24690588  0.94576147     0.11400
H1890       H  0.72976936  0.21720853  0.94663194     0.12600
H1891       H  0.80437872  0.20443696  0.04578020     0.11700
H1892       H  0.77388913  0.17466628  0.04665266     0.10900
H1893       H  0.73747030  0.15827793  0.03060238     0.16300
H1894       H  0.70973075  0.18580487  0.96706818     0.12200
H1895       H  0.79237918  0.26692558  0.96490819     0.15100
H1896       H  0.82093414  0.24015261  0.02839213     0.14800
C1897       C  0.57989932  0.37877125  0.04723540    -0.18100
C1898       C  0.59698846  0.39598985  0.04782273    -0.20200
C1899       C  0.60658690  0.40455192  0.02710812     0.20400
C1900       C  0.59892247  0.39566849  0.00557722    -0.03100
C1901       C  0.58167892  0.37834737  0.00498195    -0.06200
C1902       C  0.57212860  0.36990425  0.02592456     0.20700
C1903       C  0.57390308  0.36960092  0.98344065     0.18900
C1904       C  0.58352099  0.37811046  0.96272260    -0.17700
C1905       C  0.60064353  0.39528145  0.96331332    -0.19900
C1906       C  0.60838851  0.40417325  0.98462954     0.20400
C1907       C  0.62536707  0.42150556  0.98534053    -0.32900
C1908       C  0.63305773  0.43049268  0.00670368     0.01100
C1909       C  0.62363439  0.42190722  0.02753222    -0.24300
C1910       C  0.55481783  0.35289596  0.02519124    -0.28800
C1911       C  0.54679938  0.34433811  0.00379642     0.06700
C1912       C  0.55650518  0.35264799  0.98299144    -0.27500
H1913       H  0.57269118  0.37245101  0.06345001     0.11400
H1914       H  0.60266965  0.40264118  0.06447889     0.12600
H1915       H  0.57773715  0.37155126  0.94606297     0.11700
H1916       H  0.60778183  0.40166294  0.94709235     0.10900
H1917       H  0.63253051  0.42806091  0.96918897     0.16300
H1918       H  0.62942313  0.42883865  0.04404779     0.12200
H1919       H  0.54738640  0.34654309  0.04130407     0.15100
H1920       H  0.55042884  0.34604568  0.96644191     0.14800
C1921       C  0.79115092  0.38952001  0.04259356    -0.18100
C1922       C  0.77521262  0.40782178  0.04286673    -0.20200
C1923       C  0.76136660  0.41236839  0.02337872     0.20400
C1924       C  0.76384417  0.39852485  0.00328884    -0.03100
C1925       C  0.77984768  0.37994820  0.00307682    -0.06200
C1926       C  0.79347755  0.37536048  0.02285852     0.20700
C1927       C  0.78186089  0.36571934  0.98325490     0.18900
C1928       C  0.76816398  0.37037832  0.96366844    -0.17700
C1929       C  0.75245023  0.38888616  0.96379312    -0.19900
C1930       C  0.75007056  0.40298647  0.98355131     0.20400
C1931       C  0.73390392  0.42120444  0.98406005    -0.32900
C1932       C  0.73097752  0.43475776  0.00420900     0.01100
C1933       C  0.74486474  0.43027900  0.02375957    -0.24300
C1934       C  0.80880082  0.35640748  0.02283963    -0.28800
C1935       C  0.81065437  0.34167738  0.00329599     0.06700
C1936       C  0.79715644  0.34679303  0.98351470    -0.27500
H1937       H  0.80148314  0.38627311  0.05795106     0.11400
H1938       H  0.77358786  0.41831719  0.05841041     0.12600
H1939       H  0.76948776  0.35959928  0.94829088     0.11700
H1940       H  0.74198422  0.39202772  0.94850401     0.10900
H1941       H  0.72313929  0.42441574  0.96898142     0.16300
H1942       H  0.74275477  0.44067883  0.03932363     0.12200
H1943       H  0.81846015  0.35302434  0.03847854     0.15100
H1944       H  0.79819295  0.33555700  0.96842687     0.14800
C1945       C  0.68810549  0.88198468  0.87190358    -0.18100
C1946       C  0.68657526  0.86436663  0.88855556    -0.20200
C1947       C  0.69175969  0.86896725  0.91190798     0.20400
C1948       C  0.69940569  0.89135233  0.91836136    -0.03100
C1949       C  0.70077023  0.90921375  0.90158281    -0.06200
C1950       C  0.69469923  0.90454696  0.87834586     0.20700
C1951       C  0.70730231  0.93191071  0.90822976     0.18900
C1952       C  0.71331262  0.93627559  0.93145109    -0.17700
C1953       C  0.71226364  0.91848874  0.94801539    -0.19900
C1954       C  0.70498200  0.89606772  0.94168006     0.20400
C1955       C  0.70247971  0.87850930  0.95842263    -0.32900
C1956       C  0.69349213  0.85654854  0.95251032     0.01100
C1957       C  0.68874470  0.85179482  0.92900019    -0.24300
C1958       C  0.69415286  0.92273492  0.86220607    -0.28800
C1959       C  0.69901704  0.94571633  0.86901068     0.06700
C1960       C  0.70655181  0.95000558  0.89181693    -0.27500
H1961       H  0.68348590  0.87811172  0.85408243     0.11400
H1962       H  0.68086352  0.84724879  0.88323882     0.12600
H1963       H  0.71838486  0.95355483  0.93690565     0.11700
H1964       H  0.71660847  0.92241179  0.96589385     0.10900
H1965       H  0.70673714  0.88238603  0.97603956     0.16300
H1966       H  0.68243749  0.83478882  0.92399564     0.12200
H1967       H  0.68869838  0.91922187  0.84453280     0.15100
H1968       H  0.71030676  0.96754392  0.89722859     0.14800
C1969       C  0.67335305  0.87820188  0.11397622    -0.18100
C1970       C  0.67215755  0.86182372  0.09607169    -0.20200
C1971       C  0.68014373  0.86736918  0.07370300     0.20400
C1972       C  0.68973976  0.88952305  0.06943675    -0.03100
C1973       C  0.69077031  0.90612027  0.08743255    -0.06200
C1974       C  0.68241349  0.90043254  0.10975346     0.20700
C1975       C  0.69978054  0.92850857  0.08297336     0.18900
C1976       C  0.70800619  0.93394159  0.06067345    -0.17700
C1977       C  0.70724225  0.91738426  0.04291144    -0.19900
C1978       C  0.69804536  0.89519289  0.04712685     0.20400
C1979       C  0.69670025  0.87872883  0.02925756    -0.32900
C1980       C  0.68644167  0.85691973  0.03301414     0.01100
C1981       C  0.67844583  0.85127961  0.05545439    -0.24300
C1982       C  0.68273682  0.91724536  0.12730757    -0.28800
C1983       C  0.69092810  0.93981695  0.12277799     0.06700
C1984       C  0.69985777  0.94521604  0.10072118    -0.27500
H1985       H  0.66688608  0.87358799  0.13105537     0.11400
H1986       H  0.66481753  0.84487667  0.09968030     0.12600
H1987       H  0.71491108  0.95104213  0.05692765     0.11700
H1988       H  0.71360580  0.92202073  0.02580465     0.10900
H1989       H  0.70309110  0.88327507  0.01243525     0.16300
H1990       H  0.67098219  0.83432041  0.05876978     0.12200
H1991       H  0.67616060  0.91290334  0.14442799     0.15100
H1992       H  0.70594302  0.96265425  0.09708260     0.14800
C1993       C  0.93192726  0.68908850  0.95099322    -0.18100
C1994       C  0.94902568  0.68827165  0.93370161    -0.20200
C1995       C  0.94347009  0.68093686  0.91112392     0.20400
C1996       C  0.92037239  0.67488313  0.90576536    -0.03100
C1997       C  0.90311332  0.67567187  0.92323715    -0.06200
C1998       C  0.90899205  0.68253214  0.94601581     0.20700
C1999       C  0.88017629  0.66882602  0.91810329     0.18900
C2000       C  0.87451286  0.66207579  0.89536973    -0.17700
C2001       C  0.89161326  0.66130362  0.87805579    -0.19900
C2002       C  0.91467320  0.66728091  0.88317049     0.20400
C2003       C  0.93225134  0.66507177  0.86633733    -0.32900
C2004       C  0.95549753  0.67030753  0.87180230     0.01100
C2005       C  0.96076586  0.67876641  0.89407105    -0.24300
C2006       C  0.89209285  0.68178760  0.96362330    -0.28800
C2007       C  0.86954640  0.67373396  0.95898470     0.06700
C2008       C  0.86354954  0.66797676  0.93597016    -0.27500
H2009       H  0.93674892  0.69439281  0.96839157     0.11400
H2010       H  0.96669777  0.69298095  0.93809743     0.12600
H2011       H  0.85694921  0.65688778  0.89109530     0.11700
H2012       H  0.88689010  0.65555636  0.86077462     0.10900
H2013       H  0.92792349  0.65879832  0.84912678     0.16300
H2014       H  0.97848743  0.68253828  0.89859717     0.12200
H2015       H  0.89693238  0.68624169  0.98112579     0.15100
H2016       H  0.84607449  0.66217945  0.93209020     0.14800
C2017       C  0.76034031  0.57190542  0.04633412    -0.18100
C2018       C  0.77642196  0.59012379  0.04544218    -0.20200
C2019       C  0.78393246  0.59901641  0.02398620     0.20400
C2020       C  0.77520588  0.58943129  0.00324292    -0.03100
C2021       C  0.75880544  0.57119409  0.00413398    -0.06200
C2022       C  0.75135423  0.56236850  0.02578739     0.20700
C2023       C  0.74975007  0.56193607  0.98335579     0.18900
C2024       C  0.75714604  0.57091698  0.96192281    -0.17700
C2025       C  0.77336695  0.58897649  0.96105584    -0.19900
C2026       C  0.78250336  0.59835299  0.98160671     0.20400
C2027       C  0.79856955  0.61667609  0.98084183    -0.32900
C2028       C  0.80790452  0.62611439  0.00143125     0.01100
C2029       C  0.79979567  0.61749497  0.02295106    -0.24300
C2030       C  0.73500669  0.54425033  0.02649576    -0.28800
C2031       C  0.72594666  0.53489330  0.00581376     0.06700
C2032       C  0.73341258  0.54391203  0.98433447    -0.27500
H2033       H  0.75483596  0.56535824  0.06311080     0.11400
H2034       H  0.78298829  0.59727036  0.06155796     0.12600
H2035       H  0.75033818  0.56400274  0.94580649     0.11700
H2036       H  0.77874369  0.59564064  0.94428445     0.10900
H2037       H  0.80322992  0.62389179  0.96412294     0.16300
H2038       H  0.80556844  0.62534795  0.03902901     0.12200
H2039       H  0.72934305  0.53746173  0.04313266     0.15100
H2040       H  0.72653963  0.53687185  0.96829041     0.14800
C2041       C  0.94922360  0.69527852  0.06648099    -0.18100
C2042       C  0.93219683  0.69476354  0.04917168    -0.20200
C2043       C  0.91044868  0.68461387  0.05354767     0.20400
C2044       C  0.90569992  0.67527627  0.07571986    -0.03100
C2045       C  0.92287943  0.67573692  0.09314477    -0.06200
C2046       C  0.94479869  0.68561667  0.08844469     0.20700
C2047       C  0.91828937  0.66581526  0.11508595     0.18900
C2048       C  0.89635575  0.65624995  0.11970113    -0.17700
C2049       C  0.87930178  0.65589463  0.10247924    -0.19900
C2050       C  0.88395224  0.66502202  0.08035422     0.20400
C2051       C  0.86744337  0.66347553  0.06262447    -0.32900
C2052       C  0.87237394  0.67172860  0.04010712     0.01100
C2053       C  0.89361949  0.68304891  0.03598739    -0.24300
C2054       C  0.96211494  0.68503953  0.10554458    -0.28800
C2055       C  0.95810604  0.67405408  0.12695610     0.06700
C2056       C  0.93590842  0.66502688  0.13179587    -0.27500
H2057       H  0.96598788  0.70290215  0.06256814     0.11400
H2058       H  0.93616246  0.70200083  0.03224790     0.12600
H2059       H  0.89251728  0.64868679  0.13650956     0.11700
H2060       H  0.86261834  0.64806331  0.10632641     0.10900
H2061       H  0.85079594  0.65549787  0.06633443     0.16300
H2062       H  0.89748090  0.68994521  0.01901976     0.12200
H2063       H  0.97888017  0.69227135  0.10171966     0.15100
H2064       H  0.93246284  0.65701280  0.14849172     0.14800
C2065       C  0.77706997  0.77527596  0.96128514    -0.18100
C2066       C  0.79379740  0.75769676  0.96233629    -0.20200
C2067       C  0.79750074  0.74544641  0.98306621     0.20400
C2068       C  0.78506530  0.75179638  0.00327729    -0.03100
C2069       C  0.76829026  0.76964404  0.00225371    -0.06200
C2070       C  0.76381422  0.78097511  0.98097061     0.20700
C2071       C  0.75488751  0.77499932  0.02211795     0.18900
C2072       C  0.75924819  0.76342890  0.04309965    -0.17700
C2073       C  0.77576720  0.74568283  0.04408130    -0.19900
C2074       C  0.78826351  0.73929599  0.02412111     0.20400
C2075       C  0.80276996  0.71974783  0.02423292    -0.32900
C2076       C  0.81420652  0.71269646  0.00385752     0.01100
C2077       C  0.81226833  0.72605262  0.98358751    -0.24300
C2078       C  0.74509577  0.79652383  0.97937764    -0.28800
C2079       C  0.73074742  0.80053139  0.99869991     0.06700
C2080       C  0.73625670  0.79052931  0.02021121    -0.27500
H2081       H  0.77393570  0.78385508  0.94484812     0.11400
H2082       H  0.80323952  0.75310547  0.94669556     0.12600
H2083       H  0.74921923  0.76745879  0.05853118     0.11700
H2084       H  0.77817028  0.73639436  0.06025682     0.10900
H2085       H  0.80419890  0.70923365  0.03978469     0.16300
H2086       H  0.82089944  0.72032646  0.96783291     0.12200
H2087       H  0.74054017  0.80403143  0.96273316     0.15100
H2088       H  0.72492395  0.79349163  0.03499381     0.14800
C2089       C  0.57889684  0.54769975  0.97016932    -0.18100
C2090       C  0.56224052  0.56534269  0.96942576    -0.20200
C2091       C  0.55955406  0.58061594  0.98824654     0.20400
C2092       C  0.57306879  0.57741165  0.00842438    -0.03100
C2093       C  0.58983447  0.55959013  0.00919377    -0.06200
C2094       C  0.59313719  0.54505032  0.98974182     0.20700
C2095       C  0.60380387  0.55683469  0.02912679     0.18900
C2096       C  0.60034520  0.57138228  0.04837760    -0.17700
C2097       C  0.58375981  0.58905632  0.04760335    -0.19900
C2098       C  0.57032578  0.59242981  0.02759028     0.20400
C2099       C  0.55455006  0.61085231  0.02625934    -0.32900
C2100       C  0.54160108  0.61468095  0.00593881     0.01100
C2101       C  0.54395928  0.59929744  0.98709293    -0.24300
C2102       C  0.61113634  0.52868151  0.98990275    -0.28800
C2103       C  0.62579543  0.52657539  0.00930072     0.06700
C2104       C  0.62151982  0.54015032  0.02914801    -0.27500
H2105       H  0.58101551  0.53647185  0.95520749     0.11400
H2106       H  0.55180486  0.56735130  0.95392511     0.12600
H2107       H  0.61082128  0.56941776  0.06385657     0.11700
H2108       H  0.58173020  0.60036175  0.06251948     0.10900
H2109       H  0.55271263  0.62252586  0.04092726     0.16300
H2110       H  0.53375027  0.60191814  0.97152043     0.12200
H2111       H  0.61403348  0.51788183  0.97474096     0.15100
H2112       H  0.63260299  0.53842170  0.04424099     0.14800
C2113       C  0.39911219  0.59717136  0.97017123    -0.18100
C2114       C  0.38201353  0.57998394  0.97051009    -0.20200
C2115       C  0.37780041  0.56716748  0.99079064     0.20400
C2116       C  0.39048143  0.57208789  0.01114468    -0.03100
C2117       C  0.40779842  0.58946245  0.01079485    -0.06200
C2118       C  0.41228414  0.60179769  0.99009876     0.20700
C2119       C  0.42090377  0.59416571  0.03095486     0.18900
C2120       C  0.41618261  0.58172454  0.05141854    -0.17700
C2121       C  0.39896921  0.56449273  0.05177333    -0.19900
C2122       C  0.38617057  0.55936757  0.03166777     0.20400
C2123       C  0.36945734  0.54151538  0.03154321    -0.32900
C2124       C  0.35729298  0.53610180  0.01104444     0.01100
C2125       C  0.36139450  0.54925045  0.99088059    -0.24300
C2126       C  0.43016585  0.61823419  0.98947636    -0.28800
C2127       C  0.44375132  0.62267039  0.00923598     0.06700
C2128       C  0.43874978  0.61087915  0.03009987    -0.27500
H2129       H  0.40227087  0.60662208  0.95420163     0.11400
H2130       H  0.37229229  0.57649485  0.95479695     0.12600
H2131       H  0.42599610  0.58512752  0.06708967     0.03300
H2132       H  0.39586456  0.55497427  0.06771080     0.10900
H2133       H  0.36631634  0.53152192  0.04718895     0.16300
H2134       H  0.35189853  0.54542805  0.97509161     0.12200
H2135       H  0.43367109  0.62744200  0.97342199     0.15100
H2136       H  0.44908852  0.61426622  0.04544274     0.14800
C2137       C  0.41242714  0.75205851  0.04471308    -0.18100
C2138       C  0.39343387  0.76714081  0.04482024    -0.20200
C2139       C  0.38229793  0.77306357  0.02397918     0.20400
C2140       C  0.39023245  0.76352213  0.00286609    -0.03100
C2141       C  0.40939533  0.74825467  0.00274871    -0.06200
C2142       C  0.42058623  0.74259517  0.02377050     0.20700
C2143       C  0.41727265  0.73859632  0.98162523     0.18900
C2144       C  0.40578734  0.74410527  0.96087627    -0.17700
C2145       C  0.38677604  0.75920515  0.96101570    -0.19900
C2146       C  0.37892909  0.76907475  0.98190339     0.20400
C2147       C  0.35995215  0.78432981  0.98218063    -0.32900
C2148       C  0.35205938  0.79441134  0.00309091     0.01100
C2149       C  0.36328753  0.78823897  0.02400135    -0.24300
C2150       C  0.43961646  0.72744308  0.02351992    -0.28800
C2151       C  0.44764903  0.71777909  0.00252679     0.06700
C2152       C  0.43636530  0.72347871  0.98164061    -0.27500
H2153       H  0.42074318  0.74780130  0.06102436     0.11400
H2154       H  0.38749127  0.77423450  0.06122583     0.12600
H2155       H  0.41152185  0.73674362  0.94451804     0.11700
H2156       H  0.37823410  0.76320514  0.94475896     0.10900
H2157       H  0.35117329  0.78837619  0.96604768     0.16300
H2158       H  0.35721339  0.79449280  0.04057570     0.12200
H2159       H  0.44801409  0.72298440  0.03974523     0.15100
H2160       H  0.44222147  0.71589795  0.96541636     0.14800
C2161       C  0.59472877  0.74017086  0.03612431    -0.18100
C2162       C  0.61368416  0.75529214  0.03477386    -0.20200
C2163       C  0.62018576  0.76516380  0.01344546     0.20400
C2164       C  0.60769648  0.75948788  0.99320282    -0.03100
C2165       C  0.58874096  0.74385654  0.99449224    -0.06200
C2166       C  0.58210471  0.73440405  0.01612334     0.20700
C2167       C  0.57640744  0.73777517  0.97422082     0.18900
C2168       C  0.58330509  0.74731047  0.95281343    -0.17700
C2169       C  0.60193752  0.76299371  0.95158665    -0.19900
C2170       C  0.61414963  0.76938505  0.97172060     0.20400
C2171       C  0.63259751  0.78550987  0.97077146    -0.32900
C2172       C  0.64488255  0.79178544  0.99108670     0.01100
C2173       C  0.63887394  0.78072184  0.01213471    -0.24300
C2174       C  0.56297343  0.71936185  0.01746477    -0.28800
C2175       C  0.55041159  0.71321409  0.99744688     0.06700
C2176       C  0.55740369  0.72236791  0.97578432    -0.27500
H2177       H  0.58993282  0.73297897  0.05285179     0.11400
H2178       H  0.62312184  0.75946690  0.05049276     0.12600
H2179       H  0.57415952  0.74279029  0.93701831     0.11700
H2180       H  0.60671765  0.77022559  0.93487282     0.10900
H2181       H  0.63747968  0.79261754  0.95410021     0.16300
H2182       H  0.64865682  0.78453795  0.02774426     0.12200
H2183       H  0.55797124  0.71226917  0.03418497     0.15100
H2184       H  0.54794369  0.71769978  0.96021013     0.14800
loop_ 
_geom_bond_atom_site_label_1 
_geom_bond_atom_site_label_2 
_geom_bond_distance 
_geom_bond_site_symmetry_2 
_ccdc_geom_bond_type 
O1            V9   1.909       .  S
O1           C11   1.266       .  A
O2            V9   1.896       .  S
O2           C12   1.265   1_556  A
O3            V9   1.903       .  S
O3           C13   1.266   1_556  A
O4            V9   1.906       .  S
O4           C14   1.266   1_556  A
O5           V10   1.893       .  S
O5           C14   1.263       .  A
O6           V10   1.897       .  S
O6           C13   1.264       .  A
O7           V10   1.908       .  S
O7           C12   1.266       .  A
O8           V10   1.905       .  S
O8           C11   1.267   1_554  A
V9           V10   2.085   1_556  T
C11        C2175   1.490       .  S
C12        C2127   1.482       .  S
C13        C2151   1.482       .  S
C14        C2100   1.479       .  S
C15          C16   1.540   1_554  S
C15          C21   1.530       .  S
C15          C19   1.535       .  S
C15        C2028   1.530       .  S
C16          H23   1.084       .  S
C16          C17   1.369       .  D
C17          C18   1.548   1_556  S
C17        C2007   1.492       .  S
C18          C22   1.540       .  S
C18          C20   1.547       .  S
C18          H24   1.110       .  S
C19          H25   1.085       .  S
C19          C20   1.368       .  D
C20        C2052   1.491       .  S
C21          H26   1.087       .  S
C21          C22   1.364       .  D
C22        C2076   1.476       .  S
C27          C28   1.540   1_556  S
C27          C33   1.530       .  S
C27          C31   1.545       .  S
C27        C2172   1.536       .  S
C28          H35   1.086       .  S
C28          C29   1.368       .  D
C29          C30   1.545   1_554  S
C29        C1980   1.491       .  S
C30          C34   1.538       .  S
C30          C32   1.548       .  S
C30          H36   1.110       .  S
C31          H37   1.083       .  S
C31          C32   1.375       .  D
C32        C1956   1.499       .  S
C33          H38   1.087       .  S
C33          C34   1.362       .  D
C34        C2079   1.475       .  S
O39          V47   1.899       .  S
O39          C49   1.265   1_556  A
O40          V47   1.901       .  S
O40          C50   1.265   1_556  A
O41          V47   1.887       .  S
O41          C51   1.262   1_556  A
O42          V47   1.896       .  S
O42          C52   1.264   1_556  A
O43          V48   1.905       .  S
O43          C52   1.266       .  A
O44          V48   1.902       .  S
O44          C51   1.266       .  A
O45          V48   1.903       .  S
O45          C50   1.266       .  A
O46          V48   1.902       .  S
O46          C49   1.265       .  A
V47          V48   2.086   1_556  T
C49        C2103   1.478       .  S
C50        C1932   1.481       .  S
C51        C1908   1.473       .  S
C52        C2031   1.482       .  S
C53          C54   1.535   1_554  S
C53          C59   1.527       .  S
C53          C57   1.537       .  S
C53        C1863   1.525       .  S
C54          H61   1.086       .  S
C54          C55   1.369       .  D
C55          C56   1.543   1_556  S
C55        C1836   1.485       .  S
C56          C60   1.539       .  S
C56          C58   1.539       .  S
C56          H62   1.110       .  S
C57          H63   1.082       .  S
C57          C58   1.369       .  D
C58        C1815   1.479       .  S
C59          H64   1.087       .  S
C59          C60   1.362       .  D
C60        C1884   1.472   1_554  S
C65          C66   1.543       .  S
C65          C71   1.529       .  S
C65          C69   1.538   1_554  S
C65        C1935   1.532       .  S
C66          H73   1.082       .  S
C66          C67   1.366       .  D
C67          C68   1.538       .  S
C67        C1791   1.476       .  S
C68          C72   1.536   1_554  S
C68          C70   1.541   1_554  S
C68          H74   1.110   1_554  S
C69          H75   1.086       .  S
C69          C70   1.373       .  D
C70        C1764   1.491       .  S
C71          H76   1.087       .  S
C71          C72   1.362   1_554  D
C72        C1887   1.472       .  S
O77          V85   1.893       .  S
O77          C87   1.264   1_556  A
O78          V85   1.891       .  S
O78          C88   1.263   1_556  A
O79          V85   1.897       .  S
O79          C89   1.264   1_556  A
O80          V85   1.897       .  S
O80          C90   1.264   1_556  A
O81          V86   1.900       .  S
O81          C90   1.265       .  A
O82          V86   1.901       .  S
O82          C89   1.265       .  A
O83          V86   1.886       .  S
O83          C88   1.262       .  A
O84          V86   1.889       .  S
O84          C87   1.263       .  A
V85          V86   2.087   1_556  T
C87        C1911   1.470       .  S
C88        C1743   1.467       .  S
C89        C1719   1.480       .  S
C90        C1860   1.476       .  S
C91          C92   1.548       .  S
C91          C97   1.524       .  S
C91          C95   1.535   1_556  S
C91        C1668   1.528       .  S
C92          H99   1.083       .  S
C92          C93   1.375       .  D
C93          C94   1.539       .  S
C93        C1644   1.486       .  S
C94          C98   1.532       .  S
C94          C96   1.540   1_556  S
C94         H100   1.109       .  S
C95         H101   1.085       .  S
C95          C96   1.369       .  D
C96        C1620   1.490       .  S
C97         H102   1.087   1_556  S
C97          C98   1.358       .  D
C98        C1692   1.465   1_556  S
C103        C104   1.535       .  S
C103        C109   1.524       .  S
C103        C107   1.539   1_554  S
C103       C1740   1.514       .  S
C104        H111   1.086       .  S
C104        C105   1.365       .  D
C105        C106   1.536       .  S
C105       C1572   1.468       .  S
C106        C110   1.532       .  S
C106        C108   1.536   1_554  S
C106        H112   1.111       .  S
C107        H113   1.084       .  S
C107        C108   1.366       .  D
C108       C1599   1.474       .  S
C109        H114   1.087       .  S
C109        C110   1.360       .  D
C110       C1695   1.463       .  S
C115        C116   1.537       .  S
C115        C121   1.526       .  S
C115        C119   1.536   1_554  S
C115       C1524   1.530       .  S
C116        H123   1.084       .  S
C116        C117   1.372       .  D
C117        C118   1.548       .  S
C117       C1479   1.491       .  S
C118        C122   1.541   1_554  S
C118        C120   1.547   1_554  S
C118        H124   1.110       .  S
C119        H125   1.085       .  S
C119        C120   1.369       .  D
C120       C1503   1.494       .  S
C121        H126   1.087   1_554  S
C121        C122   1.363   1_554  D
C122       C1548   1.477       .  S
C127        C128   1.538   1_554  S
C127        C133   1.530   1_554  S
C127        C131   1.541       .  S
C127       C2148   1.531       .  S
C128        H135   1.086       .  S
C128        C129   1.370       .  D
C129        C130   1.542       .  S
C129       C1428   1.484       .  S
C130        C134   1.538       .  S
C130        C132   1.539   1_556  S
C130        H136   1.110       .  S
C131        H137   1.081       .  S
C131        C132   1.367       .  D
C132       C1452   1.484       .  S
C133        H138   1.087       .  S
C133        C134   1.364       .  D
C134       C1551   1.477       .  S
O139        V147   1.908       .  S
O139        C149   1.266       .  A
O140        V147   1.909       .  S
O140        C150   1.268       .  A
O141        V147   1.901       .  S
O141        C151   1.265       .  A
O142        V147   1.907       .  S
O142        C152   1.266       .  A
O143        V148   1.898       .  S
O143        C152   1.265   1_556  A
O144        V148   1.900       .  S
O144        C151   1.265   1_556  A
O145        V148   1.896       .  S
O145        C150   1.264   1_556  A
O146        V148   1.893       .  S
O146        C149   1.264   1_556  A
V147        V148   2.086   1_554  T
C149       C2124   1.481       .  S
C150       C1671   1.485       .  S
C151       C1716   1.481       .  S
C152       C1527   1.485       .  S
O153        V161   1.901       .  S
O153        C163   1.265   1_545  A
O154        V161   1.898       .  S
O154        C164   1.265   1_545  A
O155        V161   1.899       .  S
O155        C165   1.265   1_545  A
O156        V161   1.895       .  S
O156        C166   1.264   1_545  A
O157        V162   1.892       .  S
O157        C166   1.263       .  A
O158        V162   1.892       .  S
O158        C165   1.264       .  A
O159        V162   1.900       .  S
O159        C164   1.264       .  A
O160        V162   1.899       .  S
O160        C163   1.265       .  A
V161        V162   2.087   1_545  T
C163       C1383   1.481       .  S
C164       C1356   1.480       .  S
C165       C1404   1.476       .  S
C166       C1332   1.473       .  S
C167        C168   1.532       .  S
C167        C173   1.527       .  S
C167        C171   1.537       .  S
C167       C1260   1.532       .  S
C168        H175   1.086   1_565  S
C168        C169   1.367       .  D
C169        C170   1.546       .  S
C169       C1284   1.486   1_565  S
C170        C174   1.546       .  S
C170        C172   1.553       .  S
C170        H176   1.110       .  S
C171        H177   1.081       .  S
C171        C172   1.375       .  D
C172       C1236   1.500       .  S
C173        H178   1.087       .  S
C173        C174   1.364       .  D
C174       C1308   1.487       .  S
C179        C180   1.536       .  S
C179        C185   1.528       .  S
C179        C183   1.530   1_565  S
C179       C1380   1.529       .  S
C180        H187   1.083       .  S
C180        C181   1.367       .  D
C181        C182   1.549       .  S
C181       C1959   1.490       .  S
C182        C186   1.547       .  S
C182        C184   1.550   1_565  S
C182        H188   1.110       .  S
C183        H189   1.086       .  S
C183        C184   1.368       .  D
C184       C1839   1.489       .  S
C185        H190   1.087       .  S
C185        C186   1.366       .  D
C186       C1311   1.486       .  S
O191        V199   1.892       .  S
O191        C201   1.264       .  A
O192        V199   1.891       .  S
O192        C202   1.263       .  A
O193        V199   1.903       .  S
O193        C203   1.266       .  A
O194        V199   1.907       .  S
O194        C204   1.266       .  A
O195        V200   1.902       .  S
O195        C204   1.266       .  A
O196        V200   1.903       .  S
O196        C203   1.266       .  A
O197        V200   1.895       .  S
O197        C202   1.264       .  A
O198        V200   1.897       .  S
O198        C201   1.264       .  A
V199        V200   2.086       .  T
C201       C1212   1.475       .  S
C202       C1335   1.472       .  S
C203       C1263   1.485       .  S
C204       C1191   1.487       .  S
C205        C206   1.537       .  S
C205        C211   1.531       .  S
C205        C209   1.539   1_565  S
C205       C1143   1.531       .  S
C206        H213   1.086       .  S
C206        C207   1.367       .  D
C207        C208   1.545       .  S
C207       C1119   1.487       .  S
C208        C212   1.535       .  S
C208        C210   1.541   1_565  S
C208        H214   1.110       .  S
C209        H215   1.082       .  S
C209        C210   1.370       .  D
C210       C1092   1.485       .  S
C211        H216   1.087       .  S
C211        C212   1.364       .  D
C212       C1167   1.473       .  S
C217        C218   1.539   1_565  S
C217        C223   1.526       .  S
C217        C221   1.539       .  S
C217       C1407   1.524       .  S
C218        H225   1.083       .  S
C218        C219   1.368       .  D
C219        C220   1.538   1_545  S
C219       C1596   1.476       .  S
C220        C224   1.535       .  S
C220        C222   1.540       .  S
C220        H226   1.110       .  S
C221        H227   1.086       .  S
C221        C222   1.369       .  D
C222       C1431   1.483       .  S
C223        H228   1.087       .  S
C223        C224   1.362       .  D
C224       C1164   1.474       .  S
O229        V237   1.903       .  S
O229        C239   1.265   1_545  A
O230        V237   1.896       .  S
O230        C240   1.265   1_545  A
O231        V237   1.902       .  S
O231        C241   1.265   1_545  A
O232        V237   1.901       .  S
O232        C242   1.266   1_545  A
O233        V238   1.900       .  S
O233        C242   1.264       .  A
O234        V238   1.900       .  S
O234        C241   1.265       .  A
O235        V238   1.898       .  S
O235        C240   1.264       .  A
O236        V238   1.897       .  S
O236        C239   1.265       .  A
V237        V238   2.086   1_545  T
C239       C1140   1.481       .  S
C240       C1044   1.477       .  S
C241       C1068   1.483       .  S
C242       C1359   1.481       .  S
C243        C244   1.544       .  S
C243        C249   1.533       .  S
C243        C247   1.536       .  S
C243        C996   1.530       .  S
C244        H251   1.081       .  S
C244        C245   1.370       .  D
C245        C246   1.537       .  S
C245       C1455   1.482       .  S
C246        C250   1.532       .  S
C246        C248   1.533       .  S
C246        H252   1.111       .  S
C247        H253   1.086   1_565  S
C247        C248   1.367       .  D
C248       C1575   1.471   1_565  S
C249        H254   1.087       .  S
C249        C250   1.364       .  D
C250       C1020   1.473       .  S
C255        C256   1.539   1_565  S
C255        C261   1.529       .  S
C255        C259   1.537       .  S
C255       C1071   1.531       .  S
C256        H263   1.085       .  S
C256        C257   1.373       .  D
C257        C258   1.542   1_545  S
C257        C948   1.489       .  S
C258        C262   1.536       .  S
C258        C260   1.542       .  S
C258        H264   1.110       .  S
C259        H265   1.083       .  S
C259        C260   1.364       .  D
C260        C972   1.482       .  S
C261        H266   1.087       .  S
C261        C262   1.365       .  D
C262       C1023   1.474       .  S
C267        C268   1.536   1_565  S
C267        C273   1.527       .  S
C267        C271   1.536       .  S
C267        C903   1.525       .  S
C268        H275   1.085       .  S
C268        C269   1.367       .  D
C269        C270   1.537   1_545  S
C269       C1812   1.476       .  S
C270        C274   1.538       .  S
C270        C272   1.542       .  S
C270        H276   1.111       .  S
C271        H277   1.086       .  S
C271        C272   1.366       .  D
C272       C1983   1.480       .  S
C273        H278   1.087       .  S
C273        C274   1.365       .  D
C274        C924   1.471       .  S
C279        C280   1.531       .  S
C279        C285   1.530       .  S
C279        C283   1.540   1_565  S
C279       C1215   1.526       .  S
C280        H287   1.085       .  S
C280        C281   1.369       .  D
C281        C282   1.546       .  S
C281        C852   1.487       .  S
C282        C286   1.533       .  S
C282        C284   1.542       .  S
C282        H288   1.109       .  S
C283        H289   1.081       .  S
C283        C284   1.367   1_545  D
C284        C876   1.488   1_565  S
C285        H290   1.087       .  S
C285        C286   1.364       .  D
C286        C927   1.470       .  S
O291        V299   1.900       .  S
O291        C301   1.265       .  A
O292        V299   1.905   1_545  S
O292        C302   1.266   1_545  A
O293        V299   1.897       .  S
O293        C303   1.264       .  A
O294        V299   1.892       .  S
O294        C304   1.264       .  A
O295        V300   1.896       .  S
O295        C304   1.264       .  A
O296        V300   1.896       .  S
O296        C303   1.264       .  A
O297        V300   1.902       .  S
O297        C302   1.266       .  A
O298        V300   1.902       .  S
O298        C301   1.265       .  A
V299        V300   2.086       .  T
C301        C999   1.481       .  S
C302       C1188   1.486       .  S
C303        C900   1.477       .  S
C304       C1047   1.474       .  S
O305        V313   1.897       .  S
O305        C315   1.263       .  A
O306        V313   1.892       .  S
O306        C316   1.264   1_655  A
O307        V313   1.904       .  S
O307        C317   1.265   1_655  A
O308        V313   1.895       .  S
O308        C318   1.264   1_655  A
O309        V314   1.901       .  S
O309        C318   1.265       .  A
O310        V314   1.899       .  S
O310        C317   1.265       .  A
O311        V314   1.900       .  S
O311        C316   1.264       .  A
O312        V314   1.894       .  S
O312        C315   1.265   1_455  A
V313        V314   2.086   1_655  T
C315        C804   1.472       .  S
C316        C759   1.476       .  S
C317        C831   1.482   1_455  S
C318        C780   1.479       .  S
C319        C320   1.542   1_455  S
C319        C325   1.530       .  S
C319        C323   1.535       .  S
C319        C708   1.537       .  S
C320        H327   1.080       .  S
C320        C321   1.368       .  D
C321        C322   1.545   1_655  S
C321       C1239   1.498       .  S
C322        C326   1.540       .  S
C322        C324   1.551       .  S
C322        H328   1.110       .  S
C323        H329   1.086       .  S
C323        C324   1.372       .  D
C324       C1116   1.490       .  S
C325        H330   1.087       .  S
C325        C326   1.364       .  D
C326        C732   1.478       .  S
C331        C332   1.541   1_655  S
C331        C337   1.531   1_655  S
C331        C335   1.535       .  S
C331        C807   1.533       .  S
C332        H339   1.078       .  S
C332        C333   1.366       .  D
C333        C334   1.545   1_455  S
C333       C1500   1.496       .  S
C334        C338   1.540   1_655  S
C334        C336   1.551       .  S
C334        H340   1.109       .  S
C335        H341   1.086       .  S
C335        C336   1.372       .  D
C336       C2004   1.491       .  S
C337        H342   1.087       .  S
C337        C338   1.363       .  D
C338        C735   1.478       .  S
O343        V351   1.893       .  S
O343        C353   1.263   1_655  A
O344        V351   1.894       .  S
O344        C354   1.264   1_655  A
O345        V351   1.903       .  S
O345        C355   1.266   1_655  A
O346        V351   1.904       .  S
O346        C356   1.266   1_655  A
O347        V352   1.900       .  S
O347        C356   1.265       .  A
O348        V352   1.900       .  S
O348        C355   1.264       .  A
O349        V352   1.900       .  S
O349        C354   1.265       .  A
O350        V352   1.899       .  S
O350        C353   1.265       .  A
V351        V352   2.086   1_655  T
C353        C684   1.476       .  S
C354        C783   1.477       .  S
C355        C711   1.482       .  S
C356        C660   1.483       .  S
C357        C358   1.535       .  S
C357        C363   1.531       .  S
C357        C361   1.539   1_655  S
C357        C612   1.532   1_655  S
C358        H365   1.086       .  S
C358        C359   1.368       .  D
C359        C360   1.547       .  S
C359       C2055   1.487       .  S
C360        C364   1.541       .  S
C360        C362   1.543   1_655  S
C360        H366   1.110       .  S
C361        H367   1.083       .  S
C361        C362   1.368       .  D
C362       C1476   1.490       .  S
C363        H368   1.087       .  S
C363        C364   1.365       .  D
C364        C636   1.476       .  S
C369        C370   1.536       .  S
C369        C375   1.530       .  S
C369        C373   1.533   1_455  S
C369        C687   1.522       .  S
C370        H377   1.084       .  S
C370        C371   1.368       .  D
C371        C372   1.544       .  S
C371        C975   1.482       .  S
C372        C376   1.537       .  S
C372        C374   1.543   1_455  S
C372        H378   1.110       .  S
C373        H379   1.085       .  S
C373        C374   1.366       .  D
C374        C855   1.484       .  S
C375        H380   1.087       .  S
C375        C376   1.363       .  D
C376        C639   1.474   1_455  S
O381        V389   1.892       .  S
O381        C391   1.264   1_655  A
O382        V389   1.894       .  S
O382        C392   1.263   1_655  A
O383        V389   1.901       .  S
O383        C393   1.266   1_655  A
O384        V389   1.900       .  S
O384        C394   1.265   1_655  A
O385        V390   1.904       .  S
O385        C394   1.266       .  A
O386        V390   1.906       .  S
O386        C393   1.266       .  A
O387        V390   1.904       .  S
O387        C392   1.267       .  A
O388        V390   1.906       .  S
O388        C391   1.266       .  A
V389        V390   2.086   1_655  T
C391        C663   1.481       .  S
C392        C591   1.479       .  S
C393        C564   1.485       .  S
C394        C615   1.484       .  S
C395        C396   1.543       .  S
C395        C401   1.529   1_455  S
C395        C399   1.537   1_455  S
C395        C516   1.535       .  S
C396        H403   1.080       .  S
C396        C397   1.370       .  D
C397        C398   1.540       .  S
C397       C1095   1.489       .  S
C398        C402   1.537   1_455  S
C398        C400   1.546   1_455  S
C398        H404   1.110   1_455  S
C399        H405   1.086       .  S
C399        C400   1.371       .  D
C400       C1287   1.489       .  S
C401        H406   1.087       .  S
C401        C402   1.363       .  D
C402        C543   1.474       .  S
C407        C408   1.532       .  S
C407        C413   1.529       .  S
C407        C411   1.539   1_655  S
C407        C828   1.531       .  S
C408        H415   1.086       .  S
C408        C409   1.371       .  D
C409        C410   1.546       .  S
C409       C1767   1.489       .  S
C410        C414   1.538       .  S
C410        C412   1.543   1_655  S
C410        H416   1.110       .  S
C411        H417   1.082       .  S
C411        C412   1.367       .  D
C412       C1647   1.483       .  S
C413        H418   1.087       .  S
C413        C414   1.365       .  D
C414        C540   1.474       .  S
C419        C420   1.536       .  S
C419        C425   1.529       .  S
C419        C423   1.534   1_655  S
C419        C468   1.527       .  S
C420        H427   1.083       .  S
C420        C421   1.369       .  D
C421        C422   1.546       .  S
C421        C879   1.486       .  S
C422        C426   1.537       .  S
C422        C424   1.544   1_655  S
C422        H428   1.110       .  S
C423        H429   1.086       .  S
C423        C424   1.369       .  D
C424        C951   1.488       .  S
C425        H430   1.087       .  S
C425        C426   1.363       .  D
C426        C492   1.472   1_655  S
C431        C432   1.533   1_655  S
C431        C437   1.527   1_655  S
C431        C435   1.542       .  S
C431        C588   1.527       .  S
C432        H439   1.085       .  S
C432        C433   1.369       .  D
C433        C434   1.544   1_455  S
C433       C1623   1.491       .  S
C434        C438   1.540   1_655  S
C434        C436   1.537       .  S
C434        H440   1.110   1_655  S
C435        H441   1.083       .  S
C435        C436   1.367       .  D
C436       C1788   1.477       .  S
C437        H442   1.087       .  S
C437        C438   1.363       .  D
C438        C495   1.473       .  S
O443        V451   1.901       .  S
O443        C453   1.266   1_655  A
O444        V451   1.903       .  S
O444        C454   1.265   1_655  A
O445        V451   1.888       .  S
O445        C455   1.263   1_655  A
O446        V451   1.894       .  S
O446        C456   1.263   1_655  A
O447        V452   1.903       .  S
O447        C456   1.266       .  A
O448        V452   1.904       .  S
O448        C455   1.265       .  A
O449        V452   1.905       .  S
O449        C454   1.266       .  A
O450        V452   1.906       .  S
O450        C453   1.266       .  A
V451        V452   2.085   1_655  T
C453        C567   1.485       .  S
C454        C519   1.486       .  S
C455        C756   1.477       .  S
C456        C471   1.479       .  S
C457        C458   1.398       .  A
C457        C462   1.403       .  A
C457        H473   1.084       .  S
C458        C459   1.403       .  A
C458        H474   1.084       .  S
C459        C469   1.400       .  A
C459        C460   1.409       .  A
C460        C466   1.410   1_455  A
C460        C461   1.411       .  A
C461        C463   1.411   1_455  A
C461        C462   1.412       .  A
C462        C470   1.403       .  A
C463        C472   1.402       .  A
C463        C464   1.403       .  A
C464        C465   1.399       .  A
C464        H475   1.084       .  S
C465        C466   1.404       .  A
C465        H476   1.084       .  S
C466        C467   1.404       .  A
C467        C468   1.412       .  A
C467        H477   1.080       .  S
C468        C469   1.411   1_655  A
C469        H478   1.084       .  S
C470        C471   1.406       .  A
C470        H479   1.084       .  S
C471        C472   1.408   1_455  A
C472        H480   1.084       .  S
C481        C482   1.401       .  A
C481        C486   1.404       .  A
C481        H497   1.084       .  S
C482        C483   1.404       .  A
C482        H498   1.083       .  S
C483        C493   1.406       .  A
C483        C484   1.414   1_655  A
C484        C490   1.412       .  A
C484        C485   1.412       .  A
C485        C487   1.413       .  A
C485        C486   1.413   1_455  A
C486        C494   1.405       .  A
C487        C496   1.401       .  A
C487        C488   1.403       .  A
C488        C489   1.397       .  A
C488        H499   1.084       .  S
C489        C490   1.402       .  A
C489        H500   1.084       .  S
C490        C491   1.399       .  A
C491        C492   1.402       .  A
C491        H501   1.085       .  S
C492        C493   1.403   1_455  A
C493        H502   1.084       .  S
C494        C495   1.404   1_655  A
C494        H503   1.085       .  S
C495        C496   1.402       .  A
C496        H504   1.085       .  S
C505        C506   1.399       .  A
C505        C510   1.403       .  A
C505        H521   1.084       .  S
C506        C507   1.405       .  A
C506        H522   1.084       .  S
C507        C517   1.404       .  A
C507        C508   1.409       .  A
C508        C514   1.410   1_455  A
C508        C509   1.414       .  A
C509        C511   1.411   1_455  A
C509        C510   1.411       .  A
C510        C518   1.404       .  A
C511        C520   1.406       .  A
C511        C512   1.404       .  A
C512        C513   1.401       .  A
C512        H523   1.083       .  S
C513        C514   1.404       .  A
C513        H524   1.084       .  S
C514        C515   1.405       .  A
C515        C516   1.412   1_655  A
C515        H525   1.084       .  S
C516        C517   1.414       .  A
C517        H526   1.077       .  S
C518        C519   1.407       .  A
C518        H527   1.084       .  S
C519        C520   1.409   1_455  A
C520        H528   1.084       .  S
C529        C530   1.402       .  A
C529        C534   1.405       .  A
C529        H545   1.084       .  S
C530        C531   1.405       .  A
C530        H546   1.084       .  S
C531        C541   1.407       .  A
C531        C532   1.413   1_455  A
C532        C538   1.412       .  A
C532        C533   1.411       .  A
C533        C535   1.412       .  A
C533        C534   1.413   1_655  A
C534        C542   1.407       .  A
C535        C544   1.397       .  A
C535        C536   1.402       .  A
C536        C537   1.395       .  A
C536        H547   1.084       .  S
C537        C538   1.402       .  A
C537        H548   1.084       .  S
C538        C539   1.397       .  A
C539        C540   1.402       .  A
C539        H549   1.085       .  S
C540        C541   1.404   1_655  A
C541        H550   1.084       .  S
C542        C543   1.405   1_455  A
C542        H551   1.084       .  S
C543        C544   1.401       .  A
C544        H552   1.085       .  S
C553        C554   1.398       .  A
C553        C558   1.403       .  A
C553        H569   1.084       .  S
C554        C555   1.403       .  A
C554        H570   1.084       .  S
C555        C565   1.402       .  A
C555        C556   1.411   1_655  A
C556        C562   1.412       .  A
C556        C557   1.414       .  A
C557        C559   1.411       .  A
C557        C558   1.411   1_455  A
C558        C566   1.402       .  A
C559        C568   1.407       .  A
C559        C560   1.405       .  A
C560        C561   1.402       .  A
C560        H571   1.084       .  S
C561        C562   1.405       .  A
C561        H572   1.083       .  S
C562        C563   1.408       .  A
C563        C564   1.409       .  A
C563        H573   1.084       .  S
C564        C565   1.407   1_455  A
C565        H574   1.084       .  S
C566        C567   1.407   1_655  A
C566        H575   1.084       .  S
C567        C568   1.409       .  A
C568        H576   1.084       .  S
C577        C578   1.400       .  A
C577        C582   1.404       .  A
C577        H593   1.084       .  S
C578        C579   1.404       .  A
C578        H594   1.084       .  S
C579        C589   1.405       .  A
C579        C580   1.411       .  A
C580        C586   1.408   1_655  A
C580        C581   1.411   1_655  A
C581        C583   1.412       .  A
C581        C582   1.410   1_455  A
C582        C590   1.403       .  A
C583        C592   1.401       .  A
C583        C584   1.402       .  A
C584        C585   1.397       .  A
C584        H595   1.084       .  S
C585        C586   1.403       .  A
C585        H596   1.084       .  S
C586        C587   1.398       .  A
C587        C588   1.410   1_455  A
C587        H597   1.084       .  S
C588        C589   1.412       .  A
C589        H598   1.079       .  S
C590        C591   1.409   1_655  A
C590        H599   1.084       .  S
C591        C592   1.405       .  A
C592        H600   1.084       .  S
C601        C602   1.399       .  A
C601        C606   1.404       .  A
C601        H617   1.084       .  S
C602        C603   1.404       .  A
C602        H618   1.084       .  S
C603        C613   1.403       .  A
C603        C604   1.410   1_655  A
C604        C610   1.409       .  A
C604        C605   1.413       .  A
C605        C607   1.412       .  A
C605        C606   1.411   1_455  A
C606        C614   1.403       .  A
C607        C616   1.405       .  A
C607        C608   1.403       .  A
C608        C609   1.399       .  A
C608        H619   1.084       .  S
C609        C610   1.405       .  A
C609        H620   1.084       .  S
C610        C611   1.404       .  A
C611        C612   1.414       .  A
C611        H621   1.079       .  S
C612        C613   1.411   1_455  A
C613        H622   1.084       .  S
C614        C615   1.408   1_655  A
C614        H623   1.084       .  S
C615        C616   1.408       .  A
C616        H624   1.084       .  S
C625        C626   1.401       .  A
C625        C630   1.404       .  A
C625        H641   1.083       .  S
C626        C627   1.404       .  A
C626        H642   1.083       .  S
C627        C637   1.406       .  A
C627        C628   1.413   1_455  A
C628        C634   1.412       .  A
C628        C629   1.412       .  A
C629        C631   1.412       .  A
C629        C630   1.413   1_655  A
C630        C638   1.406       .  A
C631        C640   1.400       .  A
C631        C632   1.403       .  A
C632        C633   1.398       .  A
C632        H643   1.084       .  S
C633        C634   1.403       .  A
C633        H644   1.084       .  S
C634        C635   1.401       .  A
C635        C636   1.404       .  A
C635        H645   1.085       .  S
C636        C637   1.403   1_655  A
C637        H646   1.085       .  S
C638        C639   1.403   1_455  A
C638        H647   1.084       .  S
C639        C640   1.403       .  A
C640        H648   1.085       .  S
C649        C650   1.400       .  A
C649        C654   1.404       .  A
C649        H665   1.084       .  S
C650        C651   1.404       .  A
C650        H666   1.084       .  S
C651        C661   1.404       .  A
C651        C652   1.410       .  A
C652        C658   1.412   1_455  A
C652        C653   1.412       .  A
C653        C655   1.410   1_455  A
C653        C654   1.412       .  A
C654        C662   1.406       .  A
C655        C664   1.400       .  A
C655        C656   1.403       .  A
C656        C657   1.398       .  A
C656        H667   1.084       .  S
C657        C658   1.403       .  A
C657        H668   1.083       .  S
C658        C659   1.403       .  A
C659        C660   1.407   1_655  A
C659        H669   1.084       .  S
C660        C661   1.409       .  A
C661        H670   1.084       .  S
C662        C663   1.408       .  A
C662        H671   1.084       .  S
C663        C664   1.407   1_455  A
C664        H672   1.084       .  S
C673        C674   1.397       .  A
C673        C678   1.403       .  A
C673        H689   1.084       .  S
C674        C675   1.403       .  A
C674        H690   1.084       .  S
C675        C685   1.400       .  A
C675        C676   1.411   1_655  A
C676        C682   1.411       .  A
C676        C677   1.410       .  A
C677        C679   1.411       .  A
C677        C678   1.409   1_455  A
C678        C686   1.398       .  A
C679        C688   1.402       .  A
C679        C680   1.403       .  A
C680        C681   1.398       .  A
C680        H691   1.084       .  S
C681        C682   1.403       .  A
C681        H692   1.084       .  S
C682        C683   1.401       .  A
C683        C684   1.406       .  A
C683        H693   1.084       .  S
C684        C685   1.406   1_455  A
C685        H694   1.084       .  S
C686        C687   1.410   1_655  A
C686        H695   1.084       .  S
C687        C688   1.410       .  A
C688        H696   1.081       .  S
C697        C698   1.402       .  A
C697        C702   1.405       .  A
C697        H713   1.084       .  S
C698        C699   1.405       .  A
C698        H714   1.083       .  S
C699        C709   1.409       .  A
C699        C700   1.411       .  A
C700        C706   1.408   1_455  A
C700        C701   1.414       .  A
C701        C703   1.412   1_455  A
C701        C702   1.410       .  A
C702        C710   1.406       .  A
C703        C712   1.402       .  A
C703        C704   1.402       .  A
C704        C705   1.397       .  A
C704        H715   1.084       .  S
C705        C706   1.404       .  A
C705        H716   1.084       .  S
C706        C707   1.401       .  A
C707        C708   1.414   1_655  A
C707        H717   1.077       .  S
C708        C709   1.413       .  A
C709        H718   1.084       .  S
C710        C711   1.409       .  A
C710        H719   1.084       .  S
C711        C712   1.406   1_455  A
C712        H720   1.084       .  S
C721        C722   1.402       .  A
C721        C726   1.405       .  A
C721        H737   1.083       .  S
C722        C723   1.405       .  A
C722        H738   1.083       .  S
C723        C733   1.409       .  A
C723        C724   1.413   1_655  A
C724        C730   1.412       .  A
C724        C725   1.414       .  A
C725        C727   1.412       .  A
C725        C726   1.413   1_455  A
C726        C734   1.409       .  A
C727        C736   1.401       .  A
C727        C728   1.403       .  A
C728        C729   1.397       .  A
C728        H739   1.084       .  S
C729        C730   1.403       .  A
C729        H740   1.084       .  S
C730        C731   1.401       .  A
C731        C732   1.403       .  A
C731        H741   1.085       .  S
C732        C733   1.405   1_455  A
C733        H742   1.084       .  S
C734        C735   1.405   1_655  A
C734        H743   1.084       .  S
C735        C736   1.403       .  A
C736        H744   1.085       .  S
C745        C746   1.395       .  A
C745        C750   1.402       .  A
C745        H761   1.084       .  S
C746        C747   1.402       .  A
C746        H762   1.084       .  S
C747        C757   1.396       .  A
C747        C748   1.410   1_655  A
C748        C754   1.412       .  A
C748        C749   1.410       .  A
C749        C751   1.411       .  A
C749        C750   1.411   1_455  A
C750        C758   1.396       .  A
C751        C760   1.405       .  A
C751        C752   1.404       .  A
C752        C753   1.401       .  A
C752        H763   1.084       .  S
C753        C754   1.404       .  A
C753        H764   1.084       .  S
C754        C755   1.405       .  A
C755        C756   1.408       .  A
C755        H765   1.084       .  S
C756        C757   1.405   1_455  A
C757        H766   1.084       .  S
C758        C759   1.404   1_655  A
C758        H767   1.084       .  S
C759        C760   1.408       .  A
C760        H768   1.084       .  S
C769        C770   1.397       .  A
C769        C774   1.403       .  A
C769        H785   1.084       .  S
C770        C771   1.403       .  A
C770        H786   1.084       .  S
C771        C781   1.400       .  A
C771        C772   1.411   1_655  A
C772        C778   1.412       .  A
C772        C773   1.411       .  A
C773        C775   1.411       .  A
C773        C774   1.411   1_455  A
C774        C782   1.400       .  A
C775        C784   1.403       .  A
C775        C776   1.404       .  A
C776        C777   1.399       .  A
C776        H787   1.084       .  S
C777        C778   1.404       .  A
C777        H788   1.084       .  S
C778        C779   1.404       .  A
C779        C780   1.407       .  A
C779        H789   1.084       .  S
C780        C781   1.406   1_455  A
C781        H790   1.084       .  S
C782        C783   1.406   1_655  A
C782        H791   1.084       .  S
C783        C784   1.407       .  A
C784        H792   1.084       .  S
C793        C794   1.402       .  A
C793        C798   1.405       .  A
C793        H809   1.083       .  S
C794        C795   1.405       .  A
C794        H810   1.084       .  S
C795        C805   1.405       .  A
C795        C796   1.411       .  A
C796        C802   1.412   1_655  A
C796        C797   1.411       .  A
C797        C799   1.407   1_655  A
C797        C798   1.410       .  A
C798        C806   1.407       .  A
C799        C808   1.397       .  A
C799        C800   1.404       .  A
C800        C801   1.394       .  A
C800        H811   1.084       .  S
C801        C802   1.401       .  A
C801        H812   1.084       .  S
C802        C803   1.397       .  A
C803        C804   1.402   1_455  A
C803        H813   1.085       .  S
C804        C805   1.408       .  A
C805        H814   1.084       .  S
C806        C807   1.412       .  A
C806        H815   1.084       .  S
C807        C808   1.413   1_655  A
C808        H816   1.075       .  S
C817        C818   1.401       .  A
C817        C822   1.404       .  A
C817        H833   1.084       .  S
C818        C819   1.404       .  A
C818        H834   1.084       .  S
C819        C829   1.404       .  A
C819        C820   1.409       .  A
C820        C826   1.410   1_655  A
C820        C821   1.413       .  A
C821        C823   1.411   1_655  A
C821        C822   1.412       .  A
C822        C830   1.406       .  A
C823        C832   1.401       .  A
C823        C824   1.402       .  A
C824        C825   1.397       .  A
C824        H835   1.084       .  S
C825        C826   1.403       .  A
C825        H836   1.084       .  S
C826        C827   1.402       .  A
C827        C828   1.412   1_455  A
C827        H837   1.078       .  S
C828        C829   1.413       .  A
C829        H838   1.084       .  S
C830        C831   1.409       .  A
C830        H839   1.084       .  S
C831        C832   1.406   1_655  A
C832        H840   1.084       .  S
C841        C842   1.396       .  A
C841        C846   1.402       .  A
C841        H857   1.084       .  S
C842        C843   1.402       .  A
C842        H858   1.084       .  S
C843        C853   1.397       .  A
C843        C844   1.410       .  A
C844        C850   1.410       .  A
C844        C845   1.408       .  A
C845        C847   1.411       .  A
C845        C846   1.409       .  A
C846        C854   1.396       .  A
C847        C856   1.402       .  A
C847        C848   1.403       .  A
C848        C849   1.399       .  A
C848        H859   1.084       .  S
C849        C850   1.404       .  A
C849        H860   1.084       .  S
C850        C851   1.401       .  A
C851        C852   1.405       .  A
C851        H861   1.076       .  S
C852        C853   1.408       .  A
C853        H862   1.083       .  S
C854        C855   1.408       .  A
C854        H863   1.084       .  S
C855        C856   1.404       .  A
C856        H864   1.077       .  S
C865        C866   1.397       .  A
C865        C870   1.403       .  A
C865        H881   1.084       .  S
C866        C867   1.403       .  A
C866        H882   1.084       .  S
C867        C877   1.400       .  A
C867        C868   1.410       .  A
C868        C874   1.410       .  A
C868        C869   1.410       .  A
C869        C871   1.412       .  A
C869        C870   1.410       .  A
C870        C878   1.399       .  A
C871        C880   1.404       .  A
C871        C872   1.404       .  A
C872        C873   1.400       .  A
C872        H883   1.084       .  S
C873        C874   1.404       .  A
C873        H884   1.084       .  S
C874        C875   1.403       .  A
C875        C876   1.405       .  A
C875        H885   1.076   1_545  S
C876        C877   1.408       .  A
C877        H886   1.084       .  S
C878        C879   1.407       .  A
C878        H887   1.084       .  S
C879        C880   1.405       .  A
C880        H888   1.080       .  S
C889        C890   1.398       .  A
C889        C894   1.404       .  A
C889        H905   1.084       .  S
C890        C891   1.403       .  A
C890        H906   1.084       .  S
C891        C901   1.402       .  A
C891        C892   1.411   1_545  A
C892        C898   1.411       .  A
C892        C893   1.410       .  A
C893        C895   1.409       .  A
C893        C894   1.410   1_565  A
C894        C902   1.402       .  A
C895        C904   1.399       .  A
C895        C896   1.403       .  A
C896        C897   1.397       .  A
C896        H907   1.084       .  S
C897        C898   1.403       .  A
C897        H908   1.084       .  S
C898        C899   1.400       .  A
C899        C900   1.406       .  A
C899        H909   1.084       .  S
C900        C901   1.407   1_565  A
C901        H910   1.084       .  S
C902        C903   1.411   1_545  A
C902        H911   1.081       .  S
C903        C904   1.410       .  A
C904        H912   1.083       .  S
C913        C914   1.401       .  A
C913        C918   1.404   1_545  A
C913        H929   1.084       .  S
C914        C915   1.404   1_545  A
C914        H930   1.083       .  S
C915        C925   1.406       .  A
C915        C916   1.413       .  A
C916        C922   1.412       .  A
C916        C917   1.411       .  A
C917        C919   1.413       .  A
C917        C918   1.413       .  A
C918        C926   1.405       .  A
C919        C928   1.399       .  A
C919        C920   1.402       .  A
C920        C921   1.396       .  A
C920        H931   1.084       .  S
C921        C922   1.402       .  A
C921        H932   1.084       .  S
C922        C923   1.398       .  A
C923        C924   1.402       .  A
C923        H933   1.085       .  S
C924        C925   1.403       .  A
C925        H934   1.084   1_565  S
C926        C927   1.403       .  A
C926        H935   1.085   1_565  S
C927        C928   1.401       .  A
C928        H936   1.085       .  S
C937        C938   1.401       .  A
C937        C942   1.404       .  A
C937        H953   1.084       .  S
C938        C939   1.405       .  A
C938        H954   1.084       .  S
C939        C949   1.403       .  A
C939        C940   1.409       .  A
C940        C946   1.411       .  A
C940        C941   1.410       .  A
C941        C943   1.409       .  A
C941        C942   1.412       .  A
C942        C950   1.406       .  A
C943        C952   1.397       .  A
C943        C944   1.403       .  A
C944        C945   1.396       .  A
C944        H955   1.084       .  S
C945        C946   1.402       .  A
C945        H956   1.084       .  S
C946        C947   1.400       .  A
C947        C948   1.406       .  A
C947        H957   1.084       .  S
C948        C949   1.407       .  A
C949        H958   1.076       .  S
C950        C951   1.406       .  A
C950        H959   1.080       .  S
C951        C952   1.408       .  A
C952        H960   1.084       .  S
C961        C962   1.398       .  A
C961        C966   1.403       .  A
C961        H977   1.084       .  S
C962        C963   1.403       .  A
C962        H978   1.084       .  S
C963        C973   1.400       .  A
C963        C964   1.411       .  A
C964        C970   1.411       .  A
C964        C965   1.410       .  A
C965        C967   1.411       .  A
C965        C966   1.411       .  A
C966        C974   1.400       .  A
C967        C976   1.401       .  A
C967        C968   1.404       .  A
C968        C969   1.398       .  A
C968        H979   1.084       .  S
C969        C970   1.404       .  A
C969        H980   1.084       .  S
C970        C971   1.401       .  A
C971        C972   1.402       .  A
C971        H981   1.076       .  S
C972        C973   1.406       .  A
C973        H982   1.084       .  S
C974        C975   1.406       .  A
C974        H983   1.084       .  S
C975        C976   1.403       .  A
C976        H984   1.076       .  S
C985        C986   1.399       .  A
C985        C990   1.403       .  A
C985       H1001   1.084       .  S
C986        C987   1.404       .  A
C986       H1002   1.084       .  S
C987        C997   1.404       .  A
C987        C988   1.410       .  A
C988        C994   1.409       .  A
C988        C989   1.413       .  A
C989        C991   1.411       .  A
C989        C990   1.412       .  A
C990        C998   1.404       .  A
C991       C1000   1.402   1_565  A
C991        C992   1.403   1_565  A
C992        C993   1.399       .  A
C992       H1003   1.084       .  S
C993        C994   1.403   1_545  A
C993       H1004   1.084       .  S
C994        C995   1.402       .  A
C995        C996   1.411       .  A
C995       H1005   1.085   1_565  S
C996        C997   1.413       .  A
C997       H1006   1.077       .  S
C998        C999   1.407       .  A
C998       H1007   1.084       .  S
C999       C1000   1.407   1_565  A
C1000      H1008   1.084       .  S
C1009      C1010   1.401       .  A
C1009      C1014   1.404       .  A
C1009      H1025   1.083       .  S
C1010      C1011   1.404       .  A
C1010      H1026   1.084       .  S
C1011      C1021   1.405       .  A
C1011      C1012   1.413       .  A
C1012      C1018   1.412   1_565  A
C1012      C1013   1.410       .  A
C1013      C1015   1.411   1_565  A
C1013      C1014   1.414       .  A
C1014      C1022   1.407       .  A
C1015      C1024   1.396       .  A
C1015      C1016   1.402       .  A
C1016      C1017   1.395       .  A
C1016      H1027   1.084       .  S
C1017      C1018   1.402       .  A
C1017      H1028   1.084       .  S
C1018      C1019   1.397       .  A
C1019      C1020   1.402   1_545  A
C1019      H1029   1.085       .  S
C1020      C1021   1.404       .  A
C1021      H1030   1.084       .  S
C1022      C1023   1.404       .  A
C1022      H1031   1.084       .  S
C1023      C1024   1.403   1_565  A
C1024      H1032   1.085       .  S
C1033      C1034   1.399       .  A
C1033      C1038   1.403       .  A
C1033      H1049   1.084       .  S
C1034      C1035   1.404       .  A
C1034      H1050   1.084       .  S
C1035      C1045   1.402       .  A
C1035      C1036   1.411       .  A
C1036      C1042   1.411   1_565  A
C1036      C1037   1.409       .  A
C1037      C1039   1.411   1_565  A
C1037      C1038   1.411       .  A
C1038      C1046   1.402       .  A
C1039      C1048   1.398       .  A
C1039      C1040   1.402       .  A
C1040      C1041   1.396       .  A
C1040      H1051   1.084       .  S
C1041      C1042   1.403       .  A
C1041      H1052   1.084       .  S
C1042      C1043   1.399       .  A
C1043      C1044   1.406   1_545  A
C1043      H1053   1.084       .  S
C1044      C1045   1.407       .  A
C1045      H1054   1.084       .  S
C1046      C1047   1.406       .  A
C1046      H1055   1.084       .  S
C1047      C1048   1.405   1_565  A
C1048      H1056   1.084       .  S
C1057      C1058   1.400       .  A
C1057      C1062   1.404       .  A
C1057      H1073   1.084       .  S
C1058      C1059   1.404       .  A
C1058      H1074   1.083       .  S
C1059      C1069   1.405       .  A
C1059      C1060   1.411   1_545  A
C1060      C1066   1.411       .  A
C1060      C1061   1.413       .  A
C1061      C1063   1.409       .  A
C1061      C1062   1.410   1_565  A
C1062      C1070   1.405       .  A
C1063      C1072   1.402       .  A
C1063      C1064   1.404       .  A
C1064      C1065   1.398       .  A
C1064      H1075   1.084       .  S
C1065      C1066   1.403       .  A
C1065      H1076   1.084       .  S
C1066      C1067   1.402       .  A
C1067      C1068   1.407       .  A
C1067      H1077   1.084       .  S
C1068      C1069   1.408   1_565  A
C1069      H1078   1.084       .  S
C1070      C1071   1.411   1_545  A
C1070      H1079   1.084       .  S
C1071      C1072   1.413       .  A
C1072      H1080   1.079       .  S
C1081      C1082   1.400       .  A
C1081      C1086   1.404       .  A
C1081      H1097   1.084       .  S
C1082      C1083   1.404       .  A
C1082      H1098   1.084       .  S
C1083      C1093   1.403       .  A
C1083      C1084   1.411       .  A
C1084      C1090   1.410       .  A
C1084      C1085   1.409       .  A
C1085      C1087   1.410       .  A
C1085      C1086   1.410       .  A
C1086      C1094   1.402       .  A
C1087      C1096   1.399       .  A
C1087      C1088   1.402       .  A
C1088      C1089   1.397       .  A
C1088      H1099   1.084       .  S
C1089      C1090   1.403       .  A
C1089      H1100   1.084       .  S
C1090      C1091   1.398       .  A
C1091      C1092   1.406       .  A
C1091      H1101   1.084       .  S
C1092      C1093   1.405       .  A
C1093      H1102   1.078       .  S
C1094      C1095   1.405       .  A
C1094      H1103   1.075       .  S
C1095      C1096   1.407       .  A
C1096      H1104   1.084       .  S
C1105      C1106   1.399       .  A
C1105      C1110   1.404       .  A
C1105      H1121   1.084       .  S
C1106      C1107   1.404       .  A
C1106      H1122   1.084       .  S
C1107      C1117   1.404       .  A
C1107      C1108   1.411       .  A
C1108      C1114   1.411       .  A
C1108      C1109   1.413       .  A
C1109      C1111   1.412       .  A
C1109      C1110   1.411       .  A
C1110      C1118   1.403       .  A
C1111      C1120   1.405       .  A
C1111      C1112   1.404       .  A
C1112      C1113   1.400       .  A
C1112      H1123   1.084       .  S
C1113      C1114   1.404       .  A
C1113      H1124   1.084       .  S
C1114      C1115   1.405       .  A
C1115      C1116   1.405       .  A
C1115      H1125   1.078       .  S
C1116      C1117   1.408       .  A
C1117      H1126   1.084       .  S
C1118      C1119   1.408       .  A
C1118      H1127   1.084       .  S
C1119      C1120   1.404       .  A
C1120      H1128   1.079       .  S
C1129      C1130   1.397       .  A
C1129      C1134   1.403       .  A
C1129      H1145   1.084       .  S
C1130      C1131   1.403       .  A
C1130      H1146   1.084       .  S
C1131      C1141   1.401       .  A
C1131      C1132   1.411       .  A
C1132      C1138   1.412   1_565  A
C1132      C1133   1.413       .  A
C1133      C1135   1.410   1_565  A
C1133      C1134   1.409       .  A
C1134      C1142   1.400       .  A
C1135      C1144   1.407       .  A
C1135      C1136   1.405       .  A
C1136      C1137   1.401       .  A
C1136      H1147   1.084       .  S
C1137      C1138   1.404       .  A
C1137      H1148   1.084       .  S
C1138      C1139   1.406       .  A
C1139      C1140   1.408   1_545  A
C1139      H1149   1.084       .  S
C1140      C1141   1.406       .  A
C1141      H1150   1.084       .  S
C1142      C1143   1.410       .  A
C1142      H1151   1.084       .  S
C1143      C1144   1.415   1_565  A
C1144      H1152   1.079       .  S
C1153      C1154   1.394       .  A
C1153      C1158   1.401       .  A
C1153      H1169   1.084       .  S
C1154      C1155   1.401       .  A
C1154      H1170   1.084       .  S
C1155      C1165   1.396       .  A
C1155      C1156   1.412       .  A
C1156      C1162   1.413       .  A
C1156      C1157   1.411       .  A
C1157      C1159   1.413       .  A
C1157      C1158   1.412       .  A
C1158      C1166   1.396       .  A
C1159      C1168   1.408       .  A
C1159      C1160   1.405   1_565  A
C1160      C1161   1.403       .  A
C1160      H1171   1.084       .  S
C1161      C1162   1.405   1_545  A
C1161      H1172   1.084       .  S
C1162      C1163   1.408       .  A
C1163      C1164   1.406       .  A
C1163      H1173   1.084   1_565  S
C1164      C1165   1.401       .  A
C1165      H1174   1.085       .  S
C1166      C1167   1.400       .  A
C1166      H1175   1.085       .  S
C1167      C1168   1.405       .  A
C1168      H1176   1.084   1_565  S
C1177      C1178   1.402       .  A
C1177      C1182   1.405       .  A
C1177      H1193   1.083       .  S
C1178      C1179   1.405       .  A
C1178      H1194   1.084       .  S
C1179      C1189   1.408       .  A
C1179      C1180   1.411   1_545  A
C1180      C1186   1.411       .  A
C1180      C1181   1.414       .  A
C1181      C1183   1.411       .  A
C1181      C1182   1.411   1_565  A
C1182      C1190   1.408       .  A
C1183      C1192   1.403       .  A
C1183      C1184   1.403       .  A
C1184      C1185   1.398       .  A
C1184      H1195   1.084       .  S
C1185      C1186   1.403       .  A
C1185      H1196   1.084       .  S
C1186      C1187   1.403       .  A
C1187      C1188   1.407       .  A
C1187      H1197   1.084       .  S
C1188      C1189   1.410   1_565  A
C1189      H1198   1.084       .  S
C1190      C1191   1.410   1_545  A
C1190      H1199   1.084       .  S
C1191      C1192   1.407       .  A
C1192      H1200   1.084       .  S
C1201      C1202   1.400       .  A
C1201      C1206   1.404       .  A
C1201      H1217   1.084       .  S
C1202      C1203   1.404       .  A
C1202      H1218   1.084       .  S
C1203      C1213   1.403       .  A
C1203      C1204   1.411       .  A
C1204      C1210   1.411       .  A
C1204      C1205   1.410       .  A
C1205      C1207   1.409       .  A
C1205      C1206   1.409       .  A
C1206      C1214   1.403       .  A
C1207      C1216   1.398       .  A
C1207      C1208   1.403   1_565  A
C1208      C1209   1.395       .  A
C1208      H1219   1.084       .  S
C1209      C1210   1.402   1_545  A
C1209      H1220   1.084       .  S
C1210      C1211   1.397       .  A
C1211      C1212   1.405       .  A
C1211      H1221   1.084   1_565  S
C1212      C1213   1.407       .  A
C1213      H1222   1.084       .  S
C1214      C1215   1.412       .  A
C1214      H1223   1.084       .  S
C1215      C1216   1.410       .  A
C1216      H1224   1.078   1_565  S
C1225      C1226   1.398       .  A
C1225      C1230   1.403       .  A
C1225      H1241   1.084       .  S
C1226      C1227   1.403       .  A
C1226      H1242   1.084       .  S
C1227      C1237   1.401       .  A
C1227      C1228   1.410       .  A
C1228      C1234   1.411       .  A
C1228      C1229   1.414       .  A
C1229      C1231   1.411       .  A
C1229      C1230   1.409       .  A
C1230      C1238   1.401       .  A
C1231      C1240   1.409       .  A
C1231      C1232   1.405       .  A
C1232      C1233   1.403       .  A
C1232      H1243   1.084       .  S
C1233      C1234   1.405       .  A
C1233      H1244   1.083       .  S
C1234      C1235   1.409       .  A
C1235      C1236   1.410       .  A
C1235      H1245   1.080       .  S
C1236      C1237   1.410       .  A
C1237      H1246   1.083       .  S
C1238      C1239   1.411       .  A
C1238      H1247   1.083       .  S
C1239      C1240   1.408       .  A
C1240      H1248   1.078       .  S
C1249      C1250   1.400       .  A
C1249      C1254   1.404       .  A
C1249      H1265   1.083       .  S
C1250      C1251   1.405       .  A
C1250      H1266   1.083       .  S
C1251      C1261   1.407       .  A
C1251      C1252   1.411       .  A
C1252      C1258   1.409       .  A
C1252      C1253   1.414       .  A
C1253      C1255   1.412       .  A
C1253      C1254   1.411       .  A
C1254      C1262   1.406       .  A
C1255      C1264   1.404       .  A
C1255      C1256   1.403   1_565  A
C1256      C1257   1.399       .  A
C1256      H1267   1.084       .  S
C1257      C1258   1.404   1_545  A
C1257      H1268   1.084       .  S
C1258      C1259   1.401       .  A
C1259      C1260   1.412       .  A
C1259      H1269   1.084   1_565  S
C1260      C1261   1.413       .  A
C1261      H1270   1.079       .  S
C1262      C1263   1.409       .  A
C1262      H1271   1.084       .  S
C1263      C1264   1.408       .  A
C1264      H1272   1.084   1_565  S
C1273      C1274   1.402       .  A
C1273      C1278   1.406       .  A
C1273      H1289   1.084       .  S
C1274      C1275   1.405       .  A
C1274      H1290   1.084       .  S
C1275      C1285   1.409       .  A
C1275      C1276   1.413       .  A
C1276      C1282   1.409       .  A
C1276      C1277   1.413       .  A
C1277      C1279   1.412       .  A
C1277      C1278   1.410       .  A
C1278      C1286   1.406       .  A
C1279      C1288   1.401       .  A
C1279      C1280   1.402       .  A
C1280      C1281   1.397       .  A
C1280      H1291   1.084       .  S
C1281      C1282   1.403       .  A
C1281      H1292   1.084       .  S
C1282      C1283   1.398       .  A
C1283      C1284   1.406       .  A
C1283      H1293   1.084       .  S
C1284      C1285   1.406       .  A
C1285      H1294   1.081   1_545  S
C1286      C1287   1.407       .  A
C1286      H1295   1.075       .  S
C1287      C1288   1.405       .  A
C1288      H1296   1.084       .  S
C1297      C1298   1.403       .  A
C1297      C1302   1.405       .  A
C1297      H1313   1.083       .  S
C1298      C1299   1.405       .  A
C1298      H1314   1.083       .  S
C1299      C1309   1.411       .  A
C1299      C1300   1.413       .  A
C1300      C1306   1.411   1_565  A
C1300      C1301   1.415       .  A
C1301      C1303   1.411   1_565  A
C1301      C1302   1.413       .  A
C1302      C1310   1.411       .  A
C1303      C1312   1.400       .  A
C1303      C1304   1.403       .  A
C1304      C1305   1.397       .  A
C1304      H1315   1.084       .  S
C1305      C1306   1.403       .  A
C1305      H1316   1.084       .  S
C1306      C1307   1.400       .  A
C1307      C1308   1.407   1_545  A
C1307      H1317   1.085       .  S
C1308      C1309   1.406       .  A
C1309      H1318   1.084       .  S
C1310      C1311   1.406       .  A
C1310      H1319   1.084       .  S
C1311      C1312   1.406   1_565  A
C1312      H1320   1.085       .  S
C1321      C1322   1.397       .  A
C1321      C1326   1.403       .  A
C1321      H1337   1.084       .  S
C1322      C1323   1.403       .  A
C1322      H1338   1.084       .  S
C1323      C1333   1.399       .  A
C1323      C1324   1.411   1_545  A
C1324      C1330   1.411       .  A
C1324      C1325   1.408       .  A
C1325      C1327   1.411       .  A
C1325      C1326   1.411   1_565  A
C1326      C1334   1.399       .  A
C1327      C1336   1.399       .  A
C1327      C1328   1.403       .  A
C1328      C1329   1.397       .  A
C1328      H1339   1.084       .  S
C1329      C1330   1.403       .  A
C1329      H1340   1.084       .  S
C1330      C1331   1.399       .  A
C1331      C1332   1.406       .  A
C1331      H1341   1.084       .  S
C1332      C1333   1.405   1_565  A
C1333      H1342   1.084       .  S
C1334      C1335   1.406   1_545  A
C1334      H1343   1.084       .  S
C1335      C1336   1.405       .  A
C1336      H1344   1.084       .  S
C1345      C1346   1.400       .  A
C1345      C1350   1.404       .  A
C1345      H1361   1.084       .  S
C1346      C1347   1.404       .  A
C1346      H1362   1.084       .  S
C1347      C1357   1.404       .  A
C1347      C1348   1.412       .  A
C1348      C1354   1.411   1_565  A
C1348      C1349   1.412       .  A
C1349      C1351   1.411   1_565  A
C1349      C1350   1.411       .  A
C1350      C1358   1.404       .  A
C1351      C1360   1.402       .  A
C1351      C1352   1.403       .  A
C1352      C1353   1.397       .  A
C1352      H1363   1.084       .  S
C1353      C1354   1.403       .  A
C1353      H1364   1.084       .  S
C1354      C1355   1.401       .  A
C1355      C1356   1.406   1_545  A
C1355      H1365   1.084       .  S
C1356      C1357   1.408       .  A
C1357      H1366   1.084       .  S
C1358      C1359   1.408       .  A
C1358      H1367   1.084       .  S
C1359      C1360   1.406   1_565  A
C1360      H1368   1.084       .  S
C1369      C1370   1.397       .  A
C1369      C1374   1.403       .  A
C1369      H1385   1.084       .  S
C1370      C1371   1.403       .  A
C1370      H1386   1.084       .  S
C1371      C1381   1.402       .  A
C1371      C1372   1.410       .  A
C1372      C1378   1.409   1_565  A
C1372      C1373   1.412       .  A
C1373      C1375   1.412   1_565  A
C1373      C1374   1.411       .  A
C1374      C1382   1.401       .  A
C1375      C1384   1.405       .  A
C1375      C1376   1.404       .  A
C1376      C1377   1.400       .  A
C1376      H1387   1.084       .  S
C1377      C1378   1.404       .  A
C1377      H1388   1.084       .  S
C1378      C1379   1.403       .  A
C1379      C1380   1.412   1_545  A
C1379      H1389   1.084       .  S
C1380      C1381   1.411       .  A
C1381      H1390   1.079       .  S
C1382      C1383   1.406       .  A
C1382      H1391   1.084       .  S
C1383      C1384   1.408   1_565  A
C1384      H1392   1.084       .  S
C1393      C1394   1.397       .  A
C1393      C1398   1.403       .  A
C1393      H1409   1.084       .  S
C1394      C1395   1.403       .  A
C1394      H1410   1.084       .  S
C1395      C1405   1.399       .  A
C1395      C1396   1.411       .  A
C1396      C1402   1.412   1_565  A
C1396      C1397   1.410       .  A
C1397      C1399   1.410   1_565  A
C1397      C1398   1.410       .  A
C1398      C1406   1.400       .  A
C1399      C1408   1.403       .  A
C1399      C1400   1.404       .  A
C1400      C1401   1.399       .  A
C1400      H1411   1.084       .  S
C1401      C1402   1.403       .  A
C1401      H1412   1.084       .  S
C1402      C1403   1.402       .  A
C1403      C1404   1.406   1_545  A
C1403      H1413   1.084       .  S
C1404      C1405   1.406       .  A
C1405      H1414   1.084       .  S
C1406      C1407   1.409       .  A
C1406      H1415   1.084       .  S
C1407      C1408   1.412   1_565  A
C1408      H1416   1.080       .  S
C1417      C1418   1.398       .  A
C1417      C1422   1.403       .  A
C1417      H1433   1.084       .  S
C1418      C1419   1.403       .  A
C1418      H1434   1.084       .  S
C1419      C1429   1.401       .  A
C1419      C1420   1.411       .  A
C1420      C1426   1.412       .  A
C1420      C1421   1.413       .  A
C1421      C1423   1.412       .  A
C1421      C1422   1.411       .  A
C1422      C1430   1.400       .  A
C1423      C1432   1.407       .  A
C1423      C1424   1.404       .  A
C1424      C1425   1.402       .  A
C1424      H1435   1.083       .  S
C1425      C1426   1.404       .  A
C1425      H1436   1.083       .  S
C1426      C1427   1.407       .  A
C1427      C1428   1.406       .  A
C1427      H1437   1.084       .  S
C1428      C1429   1.406       .  A
C1429      H1438   1.084       .  S
C1430      C1431   1.405       .  A
C1430      H1439   1.084       .  S
C1431      C1432   1.406       .  A
C1432      H1440   1.084       .  S
C1441      C1442   1.400       .  A
C1441      C1446   1.404       .  A
C1441      H1457   1.084       .  S
C1442      C1443   1.404       .  A
C1442      H1458   1.084       .  S
C1443      C1453   1.404       .  A
C1443      C1444   1.412       .  A
C1444      C1450   1.411       .  A
C1444      C1445   1.411       .  A
C1445      C1447   1.412       .  A
C1445      C1446   1.411       .  A
C1446      C1454   1.404       .  A
C1447      C1456   1.400       .  A
C1447      C1448   1.402       .  A
C1448      C1449   1.397       .  A
C1448      H1459   1.084       .  S
C1449      C1450   1.403       .  A
C1449      H1460   1.084       .  S
C1450      C1451   1.399       .  A
C1451      C1452   1.406       .  A
C1451      H1461   1.084       .  S
C1452      C1453   1.406       .  A
C1453      H1462   1.084       .  S
C1454      C1455   1.406       .  A
C1454      H1463   1.084       .  S
C1455      C1456   1.405       .  A
C1456      H1464   1.084       .  S
C1465      C1466   1.401       .  A
C1465      C1470   1.405       .  A
C1465      H1481   1.084       .  S
C1466      C1467   1.405       .  A
C1466      H1482   1.084       .  S
C1467      C1477   1.405       .  A
C1467      C1468   1.410       .  A
C1468      C1474   1.411       .  A
C1468      C1469   1.412       .  A
C1469      C1471   1.410       .  A
C1469      C1470   1.411       .  A
C1470      C1478   1.406       .  A
C1471      C1480   1.401       .  A
C1471      C1472   1.403       .  A
C1472      C1473   1.398       .  A
C1472      H1483   1.083       .  S
C1473      C1474   1.402       .  A
C1473      H1484   1.084       .  S
C1474      C1475   1.401       .  A
C1475      C1476   1.407       .  A
C1475      H1485   1.084       .  S
C1476      C1477   1.405       .  A
C1477      H1486   1.073       .  S
C1478      C1479   1.407       .  A
C1478      H1487   1.078       .  S
C1479      C1480   1.408       .  A
C1480      H1488   1.084       .  S
C1489      C1490   1.396       .  A
C1489      C1494   1.403       .  A
C1489      H1505   1.084       .  S
C1490      C1491   1.403       .  A
C1490      H1506   1.084       .  S
C1491      C1501   1.398       .  A
C1491      C1492   1.409       .  A
C1492      C1498   1.411       .  A
C1492      C1493   1.412       .  A
C1493      C1495   1.411       .  A
C1493      C1494   1.410       .  A
C1494      C1502   1.399       .  A
C1495      C1504   1.407       .  A
C1495      C1496   1.405       .  A
C1496      C1497   1.402       .  A
C1496      H1507   1.083       .  S
C1497      C1498   1.405       .  A
C1497      H1508   1.084       .  S
C1498      C1499   1.407       .  A
C1499      C1500   1.407       .  A
C1499      H1509   1.077       .  S
C1500      C1501   1.411       .  A
C1501      H1510   1.083       .  S
C1502      C1503   1.409       .  A
C1502      H1511   1.083       .  S
C1503      C1504   1.408       .  A
C1504      H1512   1.078       .  S
C1513      C1514   1.402       .  A
C1513      C1518   1.405       .  A
C1513      H1529   1.083       .  S
C1514      C1515   1.405       .  A
C1514      H1530   1.084       .  S
C1515      C1525   1.408       .  A
C1515      C1516   1.411       .  A
C1516      C1522   1.409   1_554  A
C1516      C1517   1.414       .  A
C1517      C1519   1.411   1_554  A
C1517      C1518   1.411       .  A
C1518      C1526   1.408       .  A
C1519      C1528   1.401       .  A
C1519      C1520   1.403       .  A
C1520      C1521   1.397       .  A
C1520      H1531   1.084       .  S
C1521      C1522   1.403       .  A
C1521      H1532   1.084       .  S
C1522      C1523   1.400       .  A
C1523      C1524   1.411   1_556  A
C1523      H1533   1.084       .  S
C1524      C1525   1.413       .  A
C1525      H1534   1.081       .  S
C1526      C1527   1.410       .  A
C1526      H1535   1.084       .  S
C1527      C1528   1.407   1_554  A
C1528      H1536   1.084       .  S
C1537      C1538   1.397       .  A
C1537      C1542   1.402       .  A
C1537      H1553   1.084       .  S
C1538      C1539   1.403       .  A
C1538      H1554   1.084       .  S
C1539      C1549   1.400       .  A
C1539      C1540   1.411       .  A
C1540      C1546   1.414   1_556  A
C1540      C1541   1.413       .  A
C1541      C1543   1.413   1_556  A
C1541      C1542   1.412       .  A
C1542      C1550   1.400       .  A
C1543      C1552   1.407       .  A
C1543      C1544   1.404       .  A
C1544      C1545   1.401       .  A
C1544      H1555   1.084       .  S
C1545      C1546   1.404       .  A
C1545      H1556   1.083       .  S
C1546      C1547   1.408       .  A
C1547      C1548   1.404   1_554  A
C1547      H1557   1.084       .  S
C1548      C1549   1.404       .  A
C1549      H1558   1.085       .  S
C1550      C1551   1.403       .  A
C1550      H1559   1.085       .  S
C1551      C1552   1.404   1_556  A
C1552      H1560   1.084       .  S
C1561      C1562   1.395       .  A
C1561      C1566   1.402       .  A
C1561      H1577   1.084       .  S
C1562      C1563   1.402       .  A
C1562      H1578   1.084       .  S
C1563      C1573   1.396       .  A
C1563      C1564   1.411       .  A
C1564      C1570   1.413       .  A
C1564      C1565   1.408       .  A
C1565      C1567   1.412       .  A
C1565      C1566   1.412       .  A
C1566      C1574   1.397       .  A
C1567      C1576   1.403       .  A
C1567      C1568   1.404       .  A
C1568      C1569   1.400       .  A
C1568      H1579   1.084       .  S
C1569      C1570   1.404       .  A
C1569      H1580   1.084       .  S
C1570      C1571   1.404       .  A
C1571      C1572   1.402       .  A
C1571      H1581   1.085       .  S
C1572      C1573   1.401       .  A
C1573      H1582   1.085       .  S
C1574      C1575   1.401       .  A
C1574      H1583   1.085       .  S
C1575      C1576   1.404       .  A
C1576      H1584   1.084       .  S
C1585      C1586   1.399       .  A
C1585      C1590   1.403       .  A
C1585      H1601   1.084       .  S
C1586      C1587   1.403       .  A
C1586      H1602   1.084       .  S
C1587      C1597   1.401       .  A
C1587      C1588   1.412       .  A
C1588      C1594   1.412       .  A
C1588      C1589   1.408       .  A
C1589      C1591   1.411       .  A
C1589      C1590   1.412       .  A
C1590      C1598   1.401       .  A
C1591      C1600   1.397       .  A
C1591      C1592   1.402       .  A
C1592      C1593   1.396       .  A
C1592      H1603   1.084       .  S
C1593      C1594   1.402       .  A
C1593      H1604   1.084       .  S
C1594      C1595   1.398       .  A
C1595      C1596   1.404       .  A
C1595      H1605   1.084       .  S
C1596      C1597   1.405       .  A
C1597      H1606   1.084       .  S
C1598      C1599   1.404       .  A
C1598      H1607   1.084       .  S
C1599      C1600   1.404       .  A
C1600      H1608   1.084       .  S
C1609      C1610   1.403       .  A
C1609      C1614   1.405       .  A
C1609      H1625   1.083       .  S
C1610      C1611   1.405       .  A
C1610      H1626   1.083       .  S
C1611      C1621   1.408       .  A
C1611      C1612   1.411       .  A
C1612      C1618   1.410       .  A
C1612      C1613   1.411       .  A
C1613      C1615   1.409       .  A
C1613      C1614   1.412       .  A
C1614      C1622   1.409       .  A
C1615      C1624   1.394       .  A
C1615      C1616   1.402       .  A
C1616      C1617   1.394       .  A
C1616      H1627   1.084       .  S
C1617      C1618   1.401       .  A
C1617      H1628   1.084       .  S
C1618      C1619   1.395       .  A
C1619      C1620   1.406       .  A
C1619      H1629   1.083       .  S
C1620      C1621   1.410       .  A
C1621      H1630   1.083       .  S
C1622      C1623   1.409       .  A
C1622      H1631   1.083       .  S
C1623      C1624   1.408       .  A
C1624      H1632   1.083       .  S
C1633      C1634   1.399       .  A
C1633      C1638   1.403       .  A
C1633      H1649   1.084       .  S
C1634      C1635   1.404       .  A
C1634      H1650   1.084       .  S
C1635      C1645   1.401       .  A
C1635      C1636   1.410       .  A
C1636      C1642   1.413       .  A
C1636      C1637   1.412       .  A
C1637      C1639   1.410       .  A
C1637      C1638   1.413       .  A
C1638      C1646   1.404       .  A
C1639      C1648   1.401       .  A
C1639      C1640   1.404       .  A
C1640      C1641   1.399       .  A
C1640      H1651   1.084       .  S
C1641      C1642   1.403       .  A
C1641      H1652   1.083       .  S
C1642      C1643   1.405       .  A
C1643      C1644   1.406       .  A
C1643      H1653   1.084       .  S
C1644      C1645   1.408       .  A
C1645      H1654   1.084       .  S
C1646      C1647   1.403       .  A
C1646      H1655   1.080       .  S
C1647      C1648   1.407       .  A
C1648      H1656   1.084       .  S
C1657      C1658   1.400       .  A
C1657      C1662   1.404       .  A
C1657      H1673   1.083       .  S
C1658      C1659   1.404       .  A
C1658      H1674   1.083       .  S
C1659      C1669   1.408       .  A
C1659      C1660   1.413       .  A
C1660      C1666   1.407   1_556  A
C1660      C1661   1.413       .  A
C1661      C1663   1.413   1_556  A
C1661      C1662   1.409       .  A
C1662      C1670   1.404       .  A
C1663      C1672   1.405       .  A
C1663      C1664   1.403       .  A
C1664      C1665   1.398       .  A
C1664      H1675   1.084       .  S
C1665      C1666   1.404       .  A
C1665      H1676   1.084       .  S
C1666      C1667   1.399       .  A
C1667      C1668   1.412   1_554  A
C1667      H1677   1.084       .  S
C1668      C1669   1.410       .  A
C1669      H1678   1.080       .  S
C1670      C1671   1.410   1_556  A
C1670      H1679   1.084       .  S
C1671      C1672   1.407       .  A
C1672      H1680   1.084       .  S
C1681      C1682   1.399       .  A
C1681      C1686   1.404       .  A
C1681      H1697   1.084       .  S
C1682      C1683   1.404       .  A
C1682      H1698   1.084       .  S
C1683      C1693   1.403       .  A
C1683      C1684   1.413   1_556  A
C1684      C1690   1.412       .  A
C1684      C1685   1.408       .  A
C1685      C1687   1.412       .  A
C1685      C1686   1.413   1_554  A
C1686      C1694   1.403       .  A
C1687      C1696   1.396       .  A
C1687      C1688   1.401       .  A
C1688      C1689   1.395       .  A
C1688      H1699   1.084       .  S
C1689      C1690   1.402       .  A
C1689      H1700   1.084       .  S
C1690      C1691   1.396       .  A
C1691      C1692   1.400       .  A
C1691      H1701   1.085       .  S
C1692      C1693   1.402   1_554  A
C1693      H1702   1.085       .  S
C1694      C1695   1.402   1_556  A
C1694      H1703   1.085       .  S
C1695      C1696   1.399       .  A
C1696      H1704   1.085       .  S
C1705      C1706   1.399       .  A
C1705      C1710   1.403       .  A
C1705      H1721   1.084       .  S
C1706      C1707   1.404       .  A
C1706      H1722   1.084       .  S
C1707      C1717   1.403       .  A
C1707      C1708   1.411   1_556  A
C1708      C1714   1.411       .  A
C1708      C1709   1.412       .  A
C1709      C1711   1.412       .  A
C1709      C1710   1.411   1_554  A
C1710      C1718   1.402       .  A
C1711      C1720   1.403       .  A
C1711      C1712   1.403       .  A
C1712      C1713   1.399       .  A
C1712      H1723   1.084       .  S
C1713      C1714   1.404       .  A
C1713      H1724   1.084       .  S
C1714      C1715   1.403       .  A
C1715      C1716   1.407       .  A
C1715      H1725   1.084       .  S
C1716      C1717   1.407   1_554  A
C1717      H1726   1.084       .  S
C1718      C1719   1.407   1_556  A
C1718      H1727   1.084       .  S
C1719      C1720   1.407       .  A
C1720      H1728   1.084       .  S
C1729      C1730   1.395       .  A
C1729      C1734   1.402       .  A
C1729      H1745   1.084       .  S
C1730      C1731   1.403       .  A
C1730      H1746   1.084       .  S
C1731      C1741   1.396       .  A
C1731      C1732   1.409   1_556  A
C1732      C1738   1.410       .  A
C1732      C1733   1.405       .  A
C1733      C1735   1.411       .  A
C1733      C1734   1.411   1_554  A
C1734      C1742   1.396       .  A
C1735      C1744   1.397       .  A
C1735      C1736   1.403       .  A
C1736      C1737   1.396       .  A
C1736      H1747   1.084       .  S
C1737      C1738   1.403       .  A
C1737      H1748   1.084       .  S
C1738      C1739   1.397       .  A
C1739      C1740   1.408       .  A
C1739      H1749   1.084       .  S
C1740      C1741   1.409   1_554  A
C1741      H1750   1.080       .  S
C1742      C1743   1.403   1_556  A
C1742      H1751   1.084       .  S
C1743      C1744   1.405       .  A
C1744      H1752   1.084       .  S
C1753      C1754   1.396       .  A
C1753      C1758   1.402       .  A
C1753      H1769   1.084       .  S
C1754      C1755   1.402       .  A
C1754      H1770   1.084       .  S
C1755      C1765   1.399       .  A
C1755      C1756   1.411       .  A
C1756      C1762   1.410       .  A
C1756      C1757   1.412       .  A
C1757      C1759   1.412       .  A
C1757      C1758   1.409       .  A
C1758      C1766   1.397       .  A
C1759      C1768   1.408       .  A
C1759      C1760   1.405       .  A
C1760      C1761   1.402       .  A
C1760      H1771   1.084       .  S
C1761      C1762   1.405       .  A
C1761      H1772   1.084       .  S
C1762      C1763   1.406       .  A
C1763      C1764   1.410       .  A
C1763      H1773   1.079       .  S
C1764      C1765   1.406       .  A
C1765      H1774   1.084       .  S
C1766      C1767   1.407       .  A
C1766      H1775   1.084       .  S
C1767      C1768   1.407       .  A
C1768      H1776   1.080       .  S
C1777      C1778   1.399       .  A
C1777      C1782   1.403       .  A
C1777      H1793   1.084       .  S
C1778      C1779   1.403       .  A
C1778      H1794   1.084       .  S
C1779      C1789   1.403       .  A
C1779      C1780   1.413       .  A
C1780      C1786   1.412       .  A
C1780      C1781   1.411       .  A
C1781      C1783   1.413       .  A
C1781      C1782   1.411       .  A
C1782      C1790   1.401       .  A
C1783      C1792   1.403       .  A
C1783      C1784   1.403       .  A
C1784      C1785   1.399       .  A
C1784      H1795   1.084       .  S
C1785      C1786   1.403       .  A
C1785      H1796   1.084       .  S
C1786      C1787   1.402       .  A
C1787      C1788   1.404       .  A
C1787      H1797   1.084       .  S
C1788      C1789   1.404       .  A
C1789      H1798   1.085       .  S
C1790      C1791   1.402       .  A
C1790      H1799   1.080       .  S
C1791      C1792   1.404       .  A
C1792      H1800   1.084       .  S
C1801      C1802   1.393       .  A
C1801      C1806   1.401       .  A
C1801      H1817   1.084       .  S
C1802      C1803   1.401       .  A
C1802      H1818   1.084       .  S
C1803      C1813   1.392       .  A
C1803      C1804   1.411       .  A
C1804      C1810   1.413       .  A
C1804      C1805   1.410       .  A
C1805      C1807   1.413       .  A
C1805      C1806   1.411       .  A
C1806      C1814   1.393       .  A
C1807      C1816   1.411       .  A
C1807      C1808   1.406       .  A
C1808      C1809   1.404       .  A
C1808      H1819   1.083       .  S
C1809      C1810   1.405       .  A
C1809      H1820   1.083       .  S
C1810      C1811   1.411       .  A
C1811      C1812   1.406       .  A
C1811      H1821   1.084       .  S
C1812      C1813   1.402       .  A
C1813      H1822   1.085       .  S
C1814      C1815   1.403       .  A
C1814      H1823   1.085       .  S
C1815      C1816   1.407       .  A
C1816      H1824   1.084       .  S
C1825      C1826   1.397       .  A
C1825      C1830   1.403       .  A
C1825      H1841   1.084       .  S
C1826      C1827   1.403       .  A
C1826      H1842   1.084       .  S
C1827      C1837   1.399       .  A
C1827      C1828   1.411       .  A
C1828      C1834   1.412       .  A
C1828      C1829   1.412       .  A
C1829      C1831   1.412       .  A
C1829      C1830   1.410       .  A
C1830      C1838   1.399       .  A
C1831      C1840   1.407       .  A
C1831      C1832   1.404       .  A
C1832      C1833   1.401       .  A
C1832      H1843   1.084       .  S
C1833      C1834   1.404       .  A
C1833      H1844   1.083       .  S
C1834      C1835   1.406       .  A
C1835      C1836   1.407       .  A
C1835      H1845   1.084       .  S
C1836      C1837   1.407       .  A
C1837      H1846   1.084       .  S
C1838      C1839   1.408       .  A
C1838      H1847   1.084       .  S
C1839      C1840   1.405       .  A
C1840      H1848   1.079       .  S
C1849      C1850   1.398       .  A
C1849      C1854   1.403       .  A
C1849      H1865   1.084       .  S
C1850      C1851   1.403       .  A
C1850      H1866   1.084       .  S
C1851      C1861   1.401       .  A
C1851      C1852   1.412   1_556  A
C1852      C1858   1.411       .  A
C1852      C1853   1.411       .  A
C1853      C1855   1.410       .  A
C1853      C1854   1.409   1_554  A
C1854      C1862   1.399       .  A
C1855      C1864   1.404       .  A
C1855      C1856   1.404       .  A
C1856      C1857   1.399       .  A
C1856      H1867   1.084       .  S
C1857      C1858   1.403       .  A
C1857      H1868   1.084       .  S
C1858      C1859   1.402       .  A
C1859      C1860   1.406       .  A
C1859      H1869   1.084       .  S
C1860      C1861   1.406   1_554  A
C1861      H1870   1.084       .  S
C1862      C1863   1.410   1_556  A
C1862      H1871   1.085       .  S
C1863      C1864   1.412       .  A
C1864      H1872   1.078       .  S
C1873      C1874   1.395       .  A
C1873      C1878   1.402       .  A
C1873      H1889   1.084       .  S
C1874      C1875   1.402       .  A
C1874      H1890   1.084       .  S
C1875      C1885   1.396       .  A
C1875      C1876   1.411       .  A
C1876      C1882   1.414   1_556  A
C1876      C1877   1.411       .  A
C1877      C1879   1.413   1_556  A
C1877      C1878   1.412       .  A
C1878      C1886   1.397       .  A
C1879      C1888   1.406       .  A
C1879      C1880   1.404       .  A
C1880      C1881   1.401       .  A
C1880      H1891   1.083       .  S
C1881      C1882   1.404       .  A
C1881      H1892   1.083       .  S
C1882      C1883   1.407       .  A
C1883      C1884   1.403   1_554  A
C1883      H1893   1.084       .  S
C1884      C1885   1.402       .  A
C1885      H1894   1.085       .  S
C1886      C1887   1.402       .  A
C1886      H1895   1.085       .  S
C1887      C1888   1.403   1_556  A
C1888      H1896   1.084       .  S
C1897      C1898   1.397       .  A
C1897      C1902   1.403       .  A
C1897      H1913   1.084       .  S
C1898      C1899   1.403       .  A
C1898      H1914   1.084       .  S
C1899      C1909   1.401       .  A
C1899      C1900   1.412       .  A
C1900      C1906   1.410   1_554  A
C1900      C1901   1.408       .  A
C1901      C1903   1.412   1_554  A
C1901      C1902   1.410       .  A
C1902      C1910   1.398       .  A
C1903      C1912   1.399       .  A
C1903      C1904   1.402       .  A
C1904      C1905   1.397       .  A
C1904      H1915   1.084       .  S
C1905      C1906   1.403       .  A
C1905      H1916   1.084       .  S
C1906      C1907   1.398       .  A
C1907      C1908   1.406   1_556  A
C1907      H1917   1.084       .  S
C1908      C1909   1.405       .  A
C1909      H1918   1.084       .  S
C1910      C1911   1.405       .  A
C1910      H1919   1.084       .  S
C1911      C1912   1.405   1_554  A
C1912      H1920   1.084       .  S
C1921      C1922   1.399       .  A
C1921      C1926   1.404       .  A
C1921      H1937   1.084       .  S
C1922      C1923   1.403       .  A
C1922      H1938   1.084       .  S
C1923      C1933   1.404       .  A
C1923      C1924   1.411       .  A
C1924      C1930   1.411   1_554  A
C1924      C1925   1.414       .  A
C1925      C1927   1.409   1_554  A
C1925      C1926   1.410       .  A
C1926      C1934   1.405       .  A
C1927      C1936   1.403       .  A
C1927      C1928   1.404       .  A
C1928      C1929   1.400       .  A
C1928      H1939   1.084       .  S
C1929      C1930   1.404       .  A
C1929      H1940   1.084       .  S
C1930      C1931   1.404       .  A
C1931      C1932   1.408   1_556  A
C1931      H1941   1.084       .  S
C1932      C1933   1.407       .  A
C1933      H1942   1.084       .  S
C1934      C1935   1.413       .  A
C1934      H1943   1.078       .  S
C1935      C1936   1.412   1_554  A
C1936      H1944   1.084       .  S
C1945      C1946   1.399       .  A
C1945      C1950   1.404       .  A
C1945      H1961   1.083       .  S
C1946      C1947   1.403       .  A
C1946      H1962   1.083       .  S
C1947      C1957   1.406       .  A
C1947      C1948   1.412       .  A
C1948      C1954   1.407       .  A
C1948      C1949   1.414       .  A
C1949      C1951   1.413       .  A
C1949      C1950   1.409       .  A
C1950      C1958   1.401       .  A
C1951      C1960   1.408       .  A
C1951      C1952   1.404       .  A
C1952      C1953   1.401       .  A
C1952      H1963   1.084       .  S
C1953      C1954   1.406       .  A
C1953      H1964   1.083       .  S
C1954      C1955   1.405       .  A
C1955      C1956   1.408       .  A
C1955      H1965   1.067       .  S
C1956      C1957   1.408       .  A
C1957      H1966   1.084       .  S
C1958      C1959   1.409       .  A
C1958      H1967   1.084       .  S
C1959      C1960   1.405       .  A
C1960      H1968   1.079       .  S
C1969      C1970   1.399       .  A
C1969      C1974   1.404       .  A
C1969      H1985   1.084       .  S
C1970      C1971   1.403       .  A
C1970      H1986   1.084       .  S
C1971      C1981   1.404       .  A
C1971      C1972   1.412       .  A
C1972      C1978   1.408       .  A
C1972      C1973   1.411       .  A
C1973      C1975   1.413       .  A
C1973      C1974   1.410       .  A
C1974      C1982   1.399       .  A
C1975      C1984   1.403       .  A
C1975      C1976   1.403       .  A
C1976      C1977   1.399       .  A
C1976      H1987   1.084       .  S
C1977      C1978   1.404       .  A
C1977      H1988   1.083       .  S
C1978      C1979   1.401       .  A
C1979      C1980   1.404       .  A
C1979      H1989   1.068       .  S
C1980      C1981   1.408       .  A
C1981      H1990   1.084       .  S
C1982      C1983   1.407       .  A
C1982      H1991   1.084       .  S
C1983      C1984   1.404       .  A
C1984      H1992   1.084       .  S
C1993      C1994   1.399       .  A
C1993      C1998   1.404       .  A
C1993      H2009   1.084       .  S
C1994      C1995   1.404       .  A
C1994      H2010   1.084       .  S
C1995      C2005   1.403       .  A
C1995      C1996   1.410       .  A
C1996      C2002   1.411       .  A
C1996      C1997   1.413       .  A
C1997      C1999   1.410       .  A
C1997      C1998   1.411       .  A
C1998      C2006   1.404       .  A
C1999      C2008   1.404       .  A
C1999      C2000   1.404       .  A
C2000      C2001   1.400       .  A
C2000      H2011   1.083       .  S
C2001      C2002   1.404       .  A
C2001      H2012   1.083       .  S
C2002      C2003   1.406       .  A
C2003      C2004   1.409       .  A
C2003      H2013   1.084       .  S
C2004      C2005   1.405       .  A
C2005      H2014   1.076       .  S
C2006      C2007   1.405       .  A
C2006      H2015   1.077       .  S
C2007      C2008   1.409       .  A
C2008      H2016   1.084       .  S
C2017      C2018   1.400       .  A
C2017      C2022   1.404       .  A
C2017      H2033   1.084       .  S
C2018      C2019   1.404       .  A
C2018      H2034   1.084       .  S
C2019      C2029   1.403       .  A
C2019      C2020   1.409       .  A
C2020      C2026   1.411   1_554  A
C2020      C2021   1.413       .  A
C2021      C2023   1.410   1_554  A
C2021      C2022   1.412       .  A
C2022      C2030   1.405       .  A
C2023      C2032   1.402       .  A
C2023      C2024   1.403       .  A
C2024      C2025   1.398       .  A
C2024      H2035   1.084       .  S
C2025      C2026   1.404       .  A
C2025      H2036   1.084       .  S
C2026      C2027   1.404       .  A
C2027      C2028   1.411   1_556  A
C2027      H2037   1.082       .  S
C2028      C2029   1.413       .  A
C2029      H2038   1.083       .  S
C2030      C2031   1.408       .  A
C2030      H2039   1.084       .  S
C2031      C2032   1.408   1_554  A
C2032      H2040   1.084       .  S
C2041      C2042   1.400       .  A
C2041      C2046   1.404       .  A
C2041      H2057   1.084       .  S
C2042      C2043   1.404       .  A
C2042      H2058   1.084       .  S
C2043      C2053   1.405       .  A
C2043      C2044   1.411       .  A
C2044      C2050   1.409       .  A
C2044      C2045   1.411       .  A
C2045      C2047   1.411       .  A
C2045      C2046   1.410       .  A
C2046      C2054   1.404       .  A
C2047      C2056   1.401       .  A
C2047      C2048   1.403       .  A
C2048      C2049   1.398       .  A
C2048      H2059   1.084       .  S
C2049      C2050   1.403       .  A
C2049      H2060   1.084       .  S
C2050      C2051   1.399       .  A
C2051      C2052   1.409       .  A
C2051      H2061   1.084       .  S
C2052      C2053   1.406       .  A
C2053      H2062   1.077       .  S
C2054      C2055   1.404       .  A
C2054      H2063   1.074       .  S
C2055      C2056   1.407       .  A
C2056      H2064   1.084       .  S
C2065      C2066   1.400       .  A
C2065      C2070   1.404       .  A
C2065      H2081   1.083       .  S
C2066      C2067   1.404       .  A
C2066      H2082   1.083       .  S
C2067      C2077   1.406       .  A
C2067      C2068   1.413   1_556  A
C2068      C2074   1.412       .  A
C2068      C2069   1.413       .  A
C2069      C2071   1.412       .  A
C2069      C2070   1.413   1_554  A
C2070      C2078   1.406       .  A
C2071      C2080   1.403       .  A
C2071      C2072   1.403       .  A
C2072      C2073   1.399       .  A
C2072      H2083   1.084       .  S
C2073      C2074   1.403       .  A
C2073      H2084   1.084       .  S
C2074      C2075   1.403       .  A
C2075      C2076   1.404       .  A
C2075      H2085   1.085       .  S
C2076      C2077   1.403   1_554  A
C2077      H2086   1.085       .  S
C2078      C2079   1.403       .  A
C2078      H2087   1.084       .  S
C2079      C2080   1.403   1_556  A
C2080      H2088   1.085       .  S
C2089      C2090   1.400       .  A
C2089      C2094   1.404       .  A
C2089      H2105   1.084       .  S
C2090      C2091   1.404       .  A
C2090      H2106   1.084       .  S
C2091      C2101   1.405       .  A
C2091      C2092   1.412   1_556  A
C2092      C2098   1.410       .  A
C2092      C2093   1.411       .  A
C2093      C2095   1.412       .  A
C2093      C2094   1.411   1_554  A
C2094      C2102   1.403       .  A
C2095      C2104   1.403       .  A
C2095      C2096   1.403       .  A
C2096      C2097   1.398       .  A
C2096      H2107   1.084       .  S
C2097      C2098   1.403       .  A
C2097      H2108   1.084       .  S
C2098      C2099   1.401       .  A
C2099      C2100   1.407       .  A
C2099      H2109   1.084       .  S
C2100      C2101   1.407   1_554  A
C2101      H2110   1.084       .  S
C2102      C2103   1.407   1_556  A
C2102      H2111   1.084       .  S
C2103      C2104   1.406       .  A
C2104      H2112   1.084       .  S
C2113      C2114   1.396       .  A
C2113      C2118   1.402       .  A
C2113      H2129   1.084       .  S
C2114      C2115   1.402       .  A
C2114      H2130   1.084       .  S
C2115      C2125   1.399       .  A
C2115      C2116   1.411   1_556  A
C2116      C2122   1.412       .  A
C2116      C2117   1.412       .  A
C2117      C2119   1.412       .  A
C2117      C2118   1.411   1_554  A
C2118      C2126   1.399       .  A
C2119      C2128   1.408       .  A
C2119      C2120   1.405       .  A
C2120      C2121   1.402       .  A
C2120      H2131   1.083       .  S
C2121      C2122   1.405       .  A
C2121      H2132   1.083       .  S
C2122      C2123   1.408       .  A
C2123      C2124   1.408       .  A
C2123      H2133   1.084       .  S
C2124      C2125   1.406   1_554  A
C2125      H2134   1.084       .  S
C2126      C2127   1.405   1_556  A
C2126      H2135   1.084       .  S
C2127      C2128   1.409       .  A
C2128      H2136   1.084       .  S
C2137      C2138   1.398       .  A
C2137      C2142   1.403       .  A
C2137      H2153   1.084       .  S
C2138      C2139   1.404       .  A
C2138      H2154   1.084       .  S
C2139      C2149   1.402       .  A
C2139      C2140   1.409       .  A
C2140      C2146   1.410   1_554  A
C2140      C2141   1.412       .  A
C2141      C2143   1.411   1_554  A
C2141      C2142   1.411       .  A
C2142      C2150   1.402       .  A
C2143      C2152   1.404       .  A
C2143      C2144   1.404       .  A
C2144      C2145   1.400       .  A
C2144      H2155   1.083       .  S
C2145      C2146   1.404       .  A
C2145      H2156   1.083       .  S
C2146      C2147   1.404       .  A
C2147      C2148   1.411   1_556  A
C2147      H2157   1.084       .  S
C2148      C2149   1.414       .  A
C2149      H2158   1.077       .  S
C2150      C2151   1.408       .  A
C2150      H2159   1.084       .  S
C2151      C2152   1.407   1_554  A
C2152      H2160   1.084       .  S
C2161      C2162   1.398       .  A
C2161      C2166   1.403       .  A
C2161      H2177   1.084       .  S
C2162      C2163   1.403       .  A
C2162      H2178   1.084       .  S
C2163      C2173   1.402       .  A
C2163      C2164   1.409   1_554  A
C2164      C2170   1.411       .  A
C2164      C2165   1.416       .  A
C2165      C2167   1.411       .  A
C2165      C2166   1.411   1_556  A
C2166      C2174   1.403       .  A
C2167      C2176   1.411       .  A
C2167      C2168   1.406       .  A
C2168      C2169   1.404       .  A
C2168      H2179   1.083       .  S
C2169      C2170   1.406       .  A
C2169      H2180   1.083       .  S
C2170      C2171   1.412       .  A
C2171      C2172   1.415       .  A
C2171      H2181   1.080       .  S
C2172      C2173   1.412   1_556  A
C2173      H2182   1.084       .  S
C2174      C2175   1.407   1_554  A
C2174      H2183   1.084       .  S
C2175      C2176   1.412       .  A
C2176      H2184   1.084       .  S
