geometry optimzed in LAMMPS
_audit_creation_date              2020-12-01 
_audit_creation_method            'lammps2cif' 
_symmetry_space_group_name_H-M    'P1' 
_symmetry_Int_Tables_number       1 
_symmetry_cell_setting            triclinic 
loop_ 
_symmetry_equiv_pos_as_xyz 
  x,y,z 
_cell_length_a                    25.8674359 
_cell_length_b                    25.846513531599896 
_cell_length_c                    25.79972550199668 
_cell_angle_alpha                 89.58507958935634 
_cell_angle_beta                  88.70263099881541 
_cell_angle_gamma                 89.63239137170959 
loop_ 
_atom_site_label 
_atom_site_type_symbol 
_atom_site_fract_x 
_atom_site_fract_y 
_atom_site_fract_z 
_atom_site_charge 
O1          O  0.58810297  0.32664120  0.95284853    -0.71700
O2          O  0.73509466  0.32666636  0.95871299    -0.71900
O3          O  0.66204955  0.25249287  0.95757008    -0.71800
O4          O  0.66209750  0.40017873  0.95382315    -0.71800
O5          O  0.65808300  0.40110837  0.03802960    -0.71700
O6          O  0.65466175  0.25414531  0.04137082    -0.71800
O7          O  0.72989053  0.32530429  0.04256477    -0.71700
O8          O  0.58339705  0.32969097  0.03667149    -0.71900
V9          V  0.66165193  0.32640708  0.95728657     1.35200
V10         V  0.65663940  0.32756629  0.03797129     1.35200
C11         C  0.56046152  0.32866135  0.99390233     0.77600
C12         C  0.75778367  0.32616878  0.00168167     0.77600
C13         C  0.65824876  0.22799024  0.00021365     0.77500
C14         C  0.66053299  0.42568122  0.99550211     0.77400
O15         O  0.23716881  0.41028218  0.95561647    -0.71700
O16         O  0.23598565  0.26323479  0.96068873    -0.71900
O17         O  0.16324352  0.33717953  0.95899212    -0.71800
O18         O  0.31028067  0.33537126  0.95735250    -0.71800
O19         O  0.30916283  0.33791042  0.04121414    -0.71700
O20         O  0.16219635  0.33974835  0.04285028    -0.71800
O21         O  0.23616995  0.26512114  0.04451622    -0.71700
O22         O  0.23608160  0.41214945  0.03960339    -0.71900
V23         V  0.23663752  0.33664744  0.95977388     1.35200
V24         V  0.23578997  0.33870419  0.04043515     1.35200
C25         C  0.23689987  0.43646494  0.99684384     0.77600
C26         C  0.23685147  0.23882840  0.00331867     0.77600
C27         C  0.13739068  0.33871389  0.00114786     0.77500
C28         C  0.33501656  0.33550263  0.99915286     0.77400
O29         O  0.67105147  0.67553984  0.96242287    -0.71700
O30         O  0.66811315  0.82242850  0.96775609    -0.71900
O31         O  0.74319446  0.74949355  0.96429395    -0.71800
O32         O  0.59608901  0.74835200  0.96645208    -0.71800
O33         O  0.59542129  0.74495110  0.05050492    -0.71700
O34         O  0.74234859  0.74712799  0.04810684    -0.71800
O35         O  0.66826547  0.81964770  0.05153761    -0.71700
O36         O  0.66971317  0.67194223  0.04661629    -0.71900
V37         V  0.66960994  0.74890291  0.96688661     1.35200
V38         V  0.66896885  0.74585283  0.04759693     1.35200
C39         C  0.67044995  0.64871864  0.00354072     0.77600
C40         C  0.66809320  0.84652209  0.01028186     0.77600
C41         C  0.76814141  0.74918594  0.00593077     0.77500
C42         C  0.57058049  0.74639219  0.00887831     0.77400
O43         O  0.32282801  0.75779479  0.96450283    -0.71700
O44         O  0.17619148  0.76571891  0.96167413    -0.71900
O45         O  0.25290815  0.83490135  0.96611978    -0.71800
O46         O  0.24630677  0.68799804  0.96046542    -0.71800
O47         O  0.24642380  0.68478398  0.04441652    -0.71700
O48         O  0.24500889  0.83168942  0.04987519    -0.71800
O49         O  0.17234719  0.75792147  0.04532269    -0.71700
O50         O  0.31962915  0.75778776  0.04860332    -0.71900
V51         V  0.24949606  0.76152758  0.96480252     1.35200
V52         V  0.24598163  0.75815403  0.04547535     1.35200
C53         C  0.34639307  0.75728953  0.00688344     0.77600
C54         C  0.14897090  0.76234444  0.00289058     0.77600
C55         C  0.24874304  0.85857158  0.00881462     0.77500
C56         C  0.24626661  0.66114803  0.00172043     0.77400
O57         O  0.66604173  0.08740442  0.64679750    -0.71700
O58         O  0.65840328  0.07974482  0.79373608    -0.71900
O59         O  0.73509272  0.08178856  0.72273412    -0.71800
O60         O  0.58848744  0.08532862  0.71822906    -0.71800
O61         O  0.58692619  0.00164531  0.71613354    -0.71700
O62         O  0.73446735  0.99830236  0.71686801    -0.71800
O63         O  0.65799601  0.99606152  0.79068306    -0.71700
O64         O  0.66321939  0.00373471  0.64327731    -0.71900
V65         V  0.66188647  0.08189561  0.72033445     1.35200
V66         V  0.66066165  0.00147465  0.71688508     1.35200
C67         C  0.66661518  0.04673841  0.61980579     0.77600
C68         C  0.65714309  0.03684040  0.81757450     0.77600
C69         C  0.76015472  0.03975553  0.71930648     0.77500
C70         C  0.56235465  0.04422927  0.71685719     0.77400
O71         O  0.31136269  0.08586394  0.71886026    -0.71700
O72         O  0.16396113  0.08647354  0.71805079    -0.71900
O73         O  0.23524621  0.08716257  0.79210626    -0.71800
O74         O  0.23912239  0.08605502  0.64543113    -0.71800
O75         O  0.23349454  0.00252863  0.64650521    -0.71700
O76         O  0.24224719  0.00361233  0.79365424    -0.71800
O77         O  0.16480638  0.00295158  0.72600215    -0.71700
O78         O  0.31113129  0.00227038  0.71428700    -0.71900
V79         V  0.23754072  0.08485153  0.71874823     1.35200
V80         V  0.23790949  0.00437807  0.72009091     1.35200
C81         C  0.33660432  0.04372921  0.71542782     0.77600
C82         C  0.13916888  0.04451015  0.72202055     0.77600
C83         C  0.23914143  0.04582154  0.81817004     0.77500
C84         C  0.23522735  0.04431671  0.62066804     0.77400
O85         O  0.24052213  0.09482595  0.36941605    -0.71700
O86         O  0.24714454  0.09303413  0.22206864    -0.71900
O87         O  0.17009407  0.09506958  0.29492630    -0.71800
O88         O  0.31741372  0.09291702  0.29711117    -0.71800
O89         O  0.31634539  0.00916782  0.29914389    -0.71700
O90         O  0.16992598  0.01136933  0.29469490    -0.71800
O91         O  0.24626992  0.00930096  0.22363049    -0.71700
O92         O  0.23904447  0.01110243  0.37055280    -0.71900
V93         V  0.24379187  0.09242708  0.29580717     1.35200
V94         V  0.24301820  0.01190948  0.29704077     1.35200
C95         C  0.23823221  0.05318578  0.39530443     0.77600
C96         C  0.24742457  0.05080095  0.19748880     0.77600
C97         C  0.14466266  0.05336412  0.29495024     0.77500
C98         C  0.34218419  0.05050201  0.29823738     0.77400
O99         O  0.59333433  0.09294098  0.29758269    -0.71700
O100        O  0.74003022  0.09111644  0.28939787    -0.71900
O101        O  0.66406389  0.08782575  0.21986379    -0.71800
O102        O  0.66928522  0.09556648  0.36729480    -0.71800
O103        O  0.66441993  0.01197103  0.37172981    -0.71700
O104        O  0.66943478  0.00437209  0.22500742    -0.71800
O105        O  0.74011726  0.00785263  0.29967543    -0.71700
O106        O  0.59276846  0.00918139  0.29776975    -0.71900
V107        V  0.66668032  0.09031148  0.29360504     1.35200
V108        V  0.66655525  0.00992254  0.29836717     1.35200
C109        C  0.56770502  0.05151595  0.29853054     0.77600
C110        C  0.76534751  0.04945835  0.29468703     0.77600
C111        C  0.66686877  0.04460830  0.19704172     0.77500
C112        C  0.66745656  0.05480543  0.39477463     0.77400
O113        O  0.00201430  0.67904105  0.71345183    -0.71700
O114        O  0.99877734  0.82668684  0.71313422    -0.71900
O115        O  0.00117853  0.75357637  0.78668539    -0.71800
O116        O  0.00069659  0.75290487  0.63963153    -0.71800
O117        O  0.91698819  0.75264374  0.64177281    -0.71700
O118        O  0.91760381  0.75050169  0.78904311    -0.71800
O119        O  0.91516237  0.82503048  0.71537204    -0.71700
O120        O  0.91821109  0.67853104  0.71467648    -0.71900
V121        V  0.99911911  0.75294657  0.71325118     1.35200
V122        V  0.91864978  0.75171473  0.71526857     1.35200
C123        C  0.96033314  0.65355433  0.71334833     0.77600
C124        C  0.95620489  0.85124377  0.71427596     0.77600
C125        C  0.95958252  0.75247970  0.81326265     0.77500
C126        C  0.95874347  0.75271144  0.61539315     0.77400
O127        O  0.90970147  0.40464958  0.71027200    -0.71700
O128        O  0.90678978  0.25799278  0.72065813    -0.71900
O129        O  0.90855339  0.33611487  0.78868551    -0.71800
O130        O  0.90824328  0.32682659  0.64166671    -0.71800
O131        O  0.99198856  0.33130063  0.63972260    -0.71700
O132        O  0.99195197  0.32715355  0.78687835    -0.71800
O133        O  0.99025793  0.25573417  0.71172572    -0.71700
O134        O  0.99329457  0.40280624  0.71461506    -0.71900
V135        V  0.90986221  0.33131811  0.71521656     1.35200
V136        V  0.99033452  0.32926453  0.71328601     1.35200
C137        C  0.95183816  0.42894851  0.71236626     0.77600
C138        C  0.94800809  0.23158079  0.71691947     0.77600
C139        C  0.95031397  0.33216321  0.81305808     0.77500
C140        C  0.95015487  0.32873489  0.61548670     0.77400
O141        O  0.00355232  0.76293379  0.36276829    -0.71700
O142        O  0.99993117  0.76034632  0.21597542    -0.71900
O143        O  0.00132427  0.83576139  0.28741027    -0.71800
O144        O  0.00118497  0.68805569  0.29123427    -0.71800
O145        O  0.91742570  0.68946891  0.28764160    -0.71700
O146        O  0.91808874  0.83570013  0.29885268    -0.71800
O147        O  0.91652098  0.76878937  0.21978627    -0.71700
O148        O  0.92012017  0.75666733  0.36653623    -0.71900
V149        V  0.00002734  0.76186240  0.28940385     1.35200
V150        V  0.91960230  0.76262519  0.29312664     1.35200
C151        C  0.96255015  0.75899983  0.38995258     0.77600
C152        C  0.95772036  0.76500505  0.19262218     0.77600
C153        C  0.95947406  0.86105720  0.29355463     0.77500
C154        C  0.95898093  0.66362025  0.28929593     0.77400
O155        O  0.90904991  0.34155447  0.36782341    -0.71700
O156        O  0.90533414  0.33941957  0.22075959    -0.71900
O157        O  0.90806085  0.26723023  0.29547078    -0.71800
O158        O  0.90698903  0.41493843  0.29234628    -0.71800
O159        O  0.99094720  0.41440371  0.28892299    -0.71700
O160        O  0.99169149  0.26772913  0.29292703    -0.71800
O161        O  0.98894895  0.34007743  0.21688999    -0.71700
O162        O  0.99292304  0.34224574  0.36413585    -0.71900
V163        V  0.90893058  0.34096428  0.29414833     1.35200
V164        V  0.98946167  0.34112177  0.29066124     1.35200
C165        C  0.95155890  0.34156546  0.39114642     0.77600
C166        C  0.94646447  0.33894464  0.19342596     0.77600
C167        C  0.95024832  0.24207450  0.29483892     0.77500
C168        C  0.94907036  0.43977701  0.28984677     0.77400
N169        N  0.89281611  0.33253791  0.94752270    -0.36500
N170        N  0.89013143  0.33071903  0.06006749    -0.57100
N171        N  0.00234280  0.33976006  0.05849051    -0.36500
N172        N  0.00470754  0.33557264  0.94636190    -0.57100
C173        C  0.84535419  0.31350905  0.95922094     0.27100
C174        C  0.90587913  0.31655735  0.89914341     0.27100
C175        C  0.99072913  0.32304025  0.10714571     0.27100
C176        C  0.05137924  0.32432252  0.04699212     0.27100
C177        C  0.84042945  0.34271017  0.04957049     0.35700
C178        C  0.89877749  0.34719672  0.10876754     0.35700
C179        C  0.99466175  0.34935420  0.89699342     0.35700
C180        C  0.05288274  0.35229348  0.95600506     0.35700
C181        C  0.82880014  0.28359037  0.91840663    -0.21800
C182        C  0.86700163  0.28560480  0.88042174    -0.21800
C183        C  0.03224340  0.29508702  0.12613158    -0.21800
C184        C  0.07049740  0.29587441  0.08819818    -0.21800
C185        C  0.81766303  0.36814061  0.09144152    -0.22900
C186        C  0.85451157  0.37087628  0.12890363    -0.22900
C187        C  0.03610575  0.37634883  0.87548352    -0.22900
C188        C  0.07302275  0.37829839  0.91294668    -0.22900
C189        C  0.81558848  0.32724680  0.00380434    -0.18200
C190        C  0.95026036  0.33314976  0.87083964    -0.18200
C191        C  0.07951092  0.33907704  0.00155668    -0.18200
C192        C  0.94516104  0.33676891  0.13539386    -0.18200
H193        H  0.79303471  0.26237799  0.91598014     0.14700
H194        H  0.86608488  0.26633034  0.84336903     0.14700
H195        H  0.03487750  0.27565533  0.16319353     0.14700
H196        H  0.10781887  0.27712341  0.09086968     0.14700
H197        H  0.77898334  0.38400227  0.09487750     0.13000
H198        H  0.84891230  0.38899239  0.16620470     0.13000
H199        H  0.03960286  0.39306480  0.83701911     0.13000
H200        H  0.11016649  0.39698429  0.90865437     0.13000
H201        H  0.91234028  0.36022765  0.96872733     0.26300
H202        H  0.98021018  0.36554846  0.03678604     0.26200
N203        N  0.01369482  0.76281222  0.05790007    -0.36500
N204        N  0.01589987  0.76102288  0.94596796    -0.57100
N205        N  0.90311129  0.75209378  0.94844529    -0.36500
N206        N  0.90087635  0.76087111  0.06023292    -0.57100
C207        C  0.06227681  0.77880379  0.04608559     0.27100
C208        C  0.00143341  0.78006900  0.10600162     0.27100
C209        C  0.91419206  0.76756707  0.89926891     0.27100
C210        C  0.85359648  0.76621138  0.95954329     0.27100
C211        C  0.06543842  0.74802561  0.95621542     0.35700
C212        C  0.00638630  0.74350985  0.89784507     0.35700
C213        C  0.91200388  0.74824423  0.10966484     0.35700
C214        C  0.85340514  0.74164308  0.05137068     0.35700
C215        C  0.08060620  0.80803199  0.08656085    -0.21800
C216        C  0.04213221  0.80891643  0.12437699    -0.21800
C217        C  0.87175699  0.79352057  0.87952549    -0.21800
C218        C  0.83355295  0.79261705  0.91747249    -0.21800
C219        C  0.08722080  0.72117779  0.91477108    -0.22900
C220        C  0.04986697  0.71829625  0.87784846    -0.22900
C221        C  0.87194629  0.71987598  0.13203009    -0.22900
C222        C  0.83486951  0.71557858  0.09507271    -0.22900
C223        C  0.09112453  0.76317396  0.00156037    -0.18200
C224        C  0.95674254  0.76506035  0.13488739    -0.18200
C225        C  0.82606567  0.75176762  0.00545647    -0.18200
C226        C  0.96004816  0.75412791  0.87127597    -0.18200
H227        H  0.11779235  0.82669495  0.08890154     0.14700
H228        H  0.04429303  0.82826790  0.16130388     0.14700
H229        H  0.86831766  0.81165728  0.84191670     0.14700
H230        H  0.79571120  0.81007429  0.91414382     0.14700
H231        H  0.12554176  0.70439395  0.91147853     0.13000
H232        H  0.05436186  0.69882110  0.84106620     0.13000
H233        H  0.86978555  0.70298262  0.17048600     0.13000
H234        H  0.79904030  0.69463412  0.09999264     0.13000
H235        H  0.99276590  0.73581808  0.03720323     0.26300
H236        H  0.92599041  0.72769561  0.97092104     0.26200
N237        N  0.90023388  0.99426211  0.29724721    -0.36500
N238        N  0.89764620  0.10705634  0.29488751    -0.57100
N239        N  0.00957429  0.10865706  0.29842319    -0.36500
N240        N  0.01230987  0.99588537  0.29390935    -0.57100
C241        C  0.85165902  0.00485196  0.28171067     0.27100
C242        C  0.91263029  0.94595395  0.28106856     0.27100
C243        C  0.99758452  0.15704965  0.28198542     0.27100
C244        C  0.05859272  0.09812672  0.28206928     0.27100
C245        C  0.84876583  0.09545777  0.31024226     0.35700
C246        C  0.90643400  0.15602450  0.31044165     0.35700
C247        C  0.00286525  0.94642052  0.30851021     0.35700
C248        C  0.06026929  0.00708937  0.31004806     0.35700
C249        C  0.83328404  0.96315994  0.25417876    -0.21800
C250        C  0.87177110  0.92600846  0.25373206    -0.21800
C251        C  0.03914735  0.17691681  0.25346808    -0.21800
C252        C  0.07761253  0.13985275  0.25367063    -0.21800
C253        C  0.82686237  0.13672017  0.33709225    -0.22900
C254        C  0.86339951  0.17509816  0.33723714    -0.22900
C255        C  0.04438467  0.92641610  0.33521074    -0.22900
C256        C  0.08064122  0.96494883  0.33651977    -0.22900
C257        C  0.82308837  0.04978751  0.29569470    -0.18200
C258        C  0.95841051  0.91893178  0.29439668    -0.18200
C259        C  0.08674891  0.05309570  0.29599738    -0.18200
C260        C  0.95143271  0.18402977  0.29609503    -0.18200
H261        H  0.79622441  0.95968284  0.23596634     0.14700
H262        H  0.86969704  0.88876460  0.23506537     0.14700
H263        H  0.04185499  0.21391858  0.23393897     0.14700
H264        H  0.11498861  0.14344525  0.23453602     0.14700
H265        H  0.78876381  0.13906962  0.35512226     0.13000
H266        H  0.85861669  0.21235058  0.35559364     0.13000
H267        H  0.04809743  0.88841633  0.35263281     0.13000
H268        H  0.11743100  0.96197359  0.35542401     0.13000
H269        H  0.92148353  0.01652202  0.32281003     0.26300
H270        H  0.98761984  0.08622433  0.32454142     0.26200
N271        N  0.00454358  0.09839620  0.71807802    -0.36500
N272        N  0.89281648  0.09693932  0.71896644    -0.57100
N273        N  0.89550197  0.98429056  0.71330372    -0.36500
N274        N  0.00749605  0.98611145  0.71881276    -0.57100
C275        C  0.99177957  0.14652798  0.73415381     0.27100
C276        C  0.05246162  0.08773894  0.73525436     0.27100
C277        C  0.84640358  0.99434881  0.72986368     0.27100
C278        C  0.90767413  0.93556729  0.72869026     0.27100
C279        C  0.90226129  0.14654649  0.70472461     0.35700
C280        C  0.84450313  0.08599322  0.70359730     0.35700
C281        C  0.05649934  0.99826864  0.70450314     0.35700
C282        C  0.99906426  0.93783371  0.70128040     0.35700
C283        C  0.03145057  0.16621351  0.76331817    -0.21800
C284        C  0.06983496  0.12900165  0.76403601    -0.21800
C285        C  0.82748263  0.95191109  0.75723421    -0.21800
C286        C  0.86609778  0.91491133  0.75658692    -0.21800
C287        C  0.86020281  0.16683791  0.67901138    -0.22900
C288        C  0.82371365  0.12847965  0.67810067    -0.22900
C289        C  0.07886861  0.95815535  0.67633566    -0.22900
C290        C  0.04244150  0.91983271  0.67425765    -0.22900
C291        C  0.94714043  0.17379955  0.71858496    -0.18200
C292        C  0.08160890  0.04352515  0.72081035    -0.18200
C293        C  0.95419652  0.90922891  0.71436898    -0.18200
C294        C  0.81814519  0.03978530  0.71730742    -0.18200
H295        H  0.03283956  0.20347040  0.78207304     0.14700
H296        H  0.10633020  0.13228131  0.78337290     0.14700
H297        H  0.79007121  0.94785635  0.77627019     0.14700
H298        H  0.86354176  0.87744765  0.77521166     0.14700
H299        H  0.85594877  0.20501204  0.66229874     0.13000
H300        H  0.78641584  0.13179228  0.66022242     0.13000
H301        H  0.11713809  0.95657969  0.65860507     0.13000
H302        H  0.04752995  0.88333860  0.65450706     0.13000
H303        H  0.98445484  0.07675003  0.69123189     0.26300
H304        H  0.91749082  0.00732414  0.68792096     0.26200
N305        N  0.66093521  0.09515369  0.06107022    -0.36500
N306        N  0.65740385  0.09246268  0.94970610    -0.57100
N307        N  0.65916539  0.97980881  0.95304053    -0.36500
N308        N  0.66924935  0.98210411  0.06517131    -0.57100
C309        C  0.67518726  0.14378596  0.04727898     0.27100
C310        C  0.67939430  0.08554975  0.10881779     0.27100
C311        C  0.67242168  0.99088882  0.90308782     0.27100
C312        C  0.67886312  0.93253052  0.96443958     0.27100
C313        C  0.64186615  0.14155454  0.95927135     0.35700
C314        C  0.63924252  0.08007349  0.90280810     0.35700
C315        C  0.65508361  0.99369274  0.11462278     0.35700
C316        C  0.65589222  0.93217026  0.05735340     0.35700
C317        C  0.70459408  0.16475936  0.08610826    -0.21800
C318        C  0.70717630  0.12803392  0.12499909    -0.21800
C319        C  0.70226545  0.95075670  0.88288704    -0.21800
C320        C  0.70642370  0.91403117  0.92158237    -0.21800
C321        C  0.61229462  0.16007227  0.91899909    -0.22900
C322        C  0.61034447  0.12093199  0.88327790    -0.22900
C323        C  0.63150028  0.95114952  0.13792892    -0.22900
C324        C  0.63218519  0.91224312  0.10181996    -0.22900
C325        C  0.65824494  0.17008133  0.00227053    -0.18200
C326        C  0.66702213  0.04113561  0.13903743    -0.18200
C327        C  0.66780794  0.90476603  0.01104788    -0.18200
C328        C  0.65509701  0.03521012  0.87557427    -0.18200
H329        H  0.72243422  0.20248570  0.08664830     0.14700
H330        H  0.72741397  0.13234372  0.16093197     0.14700
H331        H  0.71979902  0.94802077  0.84458973     0.14700
H332        H  0.72776412  0.87808408  0.91826406     0.14700
H333        H  0.59396013  0.19764134  0.91557901     0.13000
H334        H  0.59029042  0.12275971  0.84695680     0.13000
H335        H  0.61440591  0.94821834  0.17644684     0.13000
H336        H  0.61566039  0.87430772  0.10774544     0.13000
H337        H  0.63461462  0.07208519  0.04188775     0.26300
H338        H  0.63307350  0.00078395  0.97623654     0.26200
N339        N  0.24643669  0.10570193  0.06234466    -0.36500
N340        N  0.24666123  0.99287464  0.06475694    -0.57100
N341        N  0.24519562  0.99216760  0.95292713    -0.36500
N342        N  0.23889971  0.10431814  0.95045826    -0.57100
C343        C  0.23163851  0.09431332  0.11169753     0.27100
C344        C  0.22768235  0.15341169  0.05100945     0.27100
C345        C  0.23016416  0.94371468  0.96586570     0.27100
C346        C  0.22704477  0.00263419  0.90524279     0.27100
C347        C  0.26263344  0.00407441  0.11288455     0.35700
C348        C  0.26157761  0.94359043  0.05484983     0.35700
C349        C  0.25358915  0.15350168  0.95920139     0.35700
C350        C  0.25389428  0.09323213  0.90126152     0.35700
C351        C  0.20176540  0.13471545  0.13145448    -0.21800
C352        C  0.19934897  0.17202244  0.09321371    -0.21800
C353        C  0.20042932  0.92379081  0.92667560    -0.21800
C354        C  0.19854936  0.96102629  0.88829011    -0.21800
C355        C  0.28922390  0.96200202  0.13316707    -0.22900
C356        C  0.28840925  0.92363759  0.09643016    -0.22900
C357        C  0.27943014  0.17326458  0.91580670    -0.22900
C358        C  0.27958929  0.13506375  0.87907472    -0.22900
C359        C  0.24813559  0.04991420  0.13953303    -0.18200
C360        C  0.23945811  0.18093388  0.00462236    -0.18200
C361        C  0.24025169  0.04716105  0.87592278    -0.18200
C362        C  0.24719059  0.91636319  0.01005131    -0.18200
H363        H  0.18306333  0.13724834  0.16920396     0.14700
H364        H  0.17852143  0.20829298  0.09632873     0.14700
H365        H  0.18203752  0.88634952  0.92556005     0.14700
H366        H  0.17849031  0.95759675  0.85214859     0.14700
H367        H  0.30755177  0.95892924  0.17032993     0.13000
H368        H  0.30587528  0.88569659  0.10009450     0.13000
H369        H  0.29717846  0.21079972  0.91096244     0.13000
H370        H  0.29731121  0.13788962  0.84080057     0.13000
H371        H  0.27286715  0.08454542  0.03969704     0.26300
H372        H  0.27197286  0.01430657  0.97257147     0.26200
C373        C  0.92139929  0.58131206  0.25818407    -0.09100
C374        C  0.95755413  0.60633553  0.28908338     0.07100
C375        C  0.99005270  0.57609781  0.32052677    -0.02800
C376        C  0.98655270  0.52207010  0.31992805    -0.07300
C377        C  0.95033664  0.49704179  0.28921075     0.06200
C378        C  0.91761233  0.52721155  0.25795241    -0.02300
Br379      Br  0.86940703  0.49671769  0.21191906    -0.02000
H380        H  0.89628917  0.60396940  0.23363197     0.10200
H381        H  0.01158701  0.49942904  0.34457512     0.08200
Br382      Br  0.03681677  0.60629247  0.36832838    -0.02400
C383        C  0.99056734  0.35673847  0.53171984    -0.09100
C384        C  0.95068134  0.32993541  0.55803143     0.07100
C385        C  0.91208721  0.30614957  0.52878441    -0.02800
C386        C  0.91299957  0.31114403  0.47473828    -0.07300
C387        C  0.95237815  0.33866337  0.44848975     0.08000
C388        C  0.99181123  0.36124423  0.47760091    -0.02300
Br389      Br  0.04676544  0.40125765  0.44650558    -0.02000
H390        H  0.02050078  0.37536336  0.55345494     0.10200
H391        H  0.88322131  0.29232088  0.45295049     0.08200
Br392      Br  0.85916352  0.26332350  0.55947642    -0.02400
C393        C  0.00577805  0.76337742  0.53068514    -0.09100
C394        C  0.95907450  0.75314812  0.55772926     0.07100
C395        C  0.91421699  0.74429054  0.52880100    -0.02800
C396        C  0.91694402  0.74598063  0.47468368    -0.07300
C397        C  0.96337177  0.75688202  0.44757961     0.06200
C398        C  0.00835766  0.76575773  0.47644582    -0.02300
Br399      Br  0.07437324  0.78349130  0.44568549    -0.02000
H400        H  0.04065195  0.77063973  0.55186807     0.10200
H401        H  0.88197374  0.73878453  0.45364922     0.08200
Br402      Br  0.84751910  0.72906097  0.55933555    -0.02400
C403        C  0.99776597  0.51164282  0.69346204    -0.09100
C404        C  0.95300243  0.48639872  0.71209050     0.07100
C405        C  0.91081363  0.51677413  0.73025670    -0.02800
C406        C  0.91461425  0.57071673  0.73042316    -0.07300
C407        C  0.95953655  0.59604204  0.71231205     0.06200
C408        C  0.00114075  0.56576203  0.69273634    -0.02300
Br409      Br  0.06204166  0.59533080  0.66096146    -0.02000
H410        H  0.03011054  0.48914100  0.67828577     0.10200
H411        H  0.88204666  0.59304560  0.74537726     0.08200
Br412      Br  0.84745522  0.48787897  0.75759824    -0.02400
C413        C  0.42613763  0.09530368  0.31075714    -0.09100
C414        C  0.39985013  0.04966300  0.29866568     0.07100
C415        C  0.42952055  0.00485229  0.28691589    -0.02800
C416        C  0.48361997  0.00652442  0.28792005    -0.07300
C417        C  0.50996290  0.05220670  0.29969719     0.06200
C418        C  0.48027638  0.09709676  0.31138758    -0.02300
Br419      Br  0.50997512  0.16220178  0.32999470    -0.02000
H420        H  0.40441555  0.13009820  0.32014895     0.10200
H421        H  0.50528884  0.97176494  0.27829655     0.08200
Br422      Br  0.39981041  0.94044280  0.26622477    -0.02400
C423        C  0.23910091  0.09354485  0.53748879    -0.09100
C424        C  0.23323568  0.04555566  0.56304221     0.07100
C425        C  0.22611012  0.00095759  0.53266762    -0.02800
C426        C  0.22709914  0.00500156  0.47855960    -0.07300
C427        C  0.23486188  0.05269116  0.45298596     0.06200
C428        C  0.23992995  0.09763348  0.48339934    -0.02300
Br429      Br  0.24945845  0.16601617  0.45504841    -0.02000
H430        H  0.24388076  0.12853184  0.55969155     0.10200
H431        H  0.22204487  0.97008688  0.45631404     0.08200
Br432      Br  0.21461716  0.93300919  0.56121557    -0.02400
C433        C  0.65603554  0.09570749  0.53684755    -0.09100
C434        C  0.67033284  0.04961988  0.56227919     0.07100
C435        C  0.68738210  0.00727755  0.53194087    -0.02800
C436        C  0.68613529  0.01043757  0.47789693    -0.07300
C437        C  0.66979477  0.05569148  0.45233118     0.06200
C438        C  0.65607709  0.09930167  0.48254899    -0.02300
Br439      Br  0.63520307  0.16431083  0.45293837    -0.02000
H440        H  0.64380540  0.12904221  0.55930427     0.10200
H441        H  0.69880343  0.97712810  0.45562028     0.08200
Br442      Br  0.71610439  0.94498911  0.56097213    -0.02400
C443        C  0.42074027  0.08869842  0.72610230    -0.09100
C444        C  0.39437889  0.04317412  0.71383889     0.07100
C445        C  0.42410641  0.99849620  0.70140485    -0.02800
C446        C  0.47823749  0.00006705  0.70281944    -0.07300
C447        C  0.50459237  0.04545321  0.71574494     0.06200
C448        C  0.47486290  0.09036594  0.72714177    -0.02300
Br449      Br  0.50438672  0.15532105  0.74632709    -0.02000
H450        H  0.39907648  0.12344541  0.73578336     0.10200
H451        H  0.49991505  0.96531615  0.69317744     0.08200
Br452      Br  0.39454319  0.93410053  0.68031907    -0.02400
C453        C  0.42835244  0.72786256  0.04733165    -0.09100
C454        C  0.40374803  0.75529252  0.00752490     0.07100
C455        C  0.43457964  0.77936949  0.96855195    -0.02800
C456        C  0.48847710  0.77507802  0.96958794    -0.07300
C457        C  0.51318192  0.74774738  0.00929805     0.06200
C458        C  0.48244376  0.72373510  0.04847033    -0.02300
Br459      Br  0.51145174  0.68216972  0.10269120    -0.02000
H460        H  0.40534134  0.70859374  0.07721177     0.10200
H461        H  0.51133091  0.79446287  0.93966238     0.08200
Br462      Br  0.40606391  0.82195311  0.91484033    -0.02400
C463        C  0.22634519  0.57884723  0.95613772    -0.09100
C464        C  0.24531245  0.60363402  0.00013960     0.07100
C465        C  0.26232439  0.57271066  0.04192631    -0.02800
C466        C  0.25849924  0.51887344  0.03971806    -0.07300
C467        C  0.23908741  0.49398209  0.99610179     0.06200
C468        C  0.22323658  0.52471337  0.95364356    -0.02300
Br469      Br  0.19496819  0.49602020  0.89200279    -0.02000
H470        H  0.21307223  0.60172556  0.92363925     0.10200
H471        H  0.27198817  0.49618135  0.07225462     0.08200
Br472      Br  0.29447839  0.60041461  0.10208605    -0.02400
C473        C  0.70494648  0.50864713  0.97374814    -0.09100
C474        C  0.66177645  0.48281233  0.99509275     0.07100
C475        C  0.62149012  0.51192545  0.01844117    -0.02800
C476        C  0.62541370  0.56584488  0.02160280    -0.07300
C477        C  0.66885418  0.59167330  0.00104638     0.06200
C478        C  0.70872530  0.56272766  0.97660177    -0.02300
Br479      Br  0.77024771  0.59520135  0.94948255    -0.02000
H480        H  0.73636421  0.48661697  0.95605243     0.10200
H481        H  0.59396952  0.58781565  0.03933413     0.08200
Br482      Br  0.55912955  0.47979247  0.04383921    -0.02400
C483        C  0.47551975  0.32254658  0.04055817    -0.09100
C484        C  0.50277480  0.32958409  0.99326395     0.07100
C485        C  0.47398337  0.33739546  0.94782058    -0.02800
C486        C  0.41979025  0.33928971  0.95094948    -0.07300
C487        C  0.39265056  0.33289342  0.99843927     0.06200
C488        C  0.42147813  0.32351910  0.04357818    -0.02300
Br489      Br  0.39083711  0.30915574  0.11071962    -0.02000
H490        H  0.49638477  0.31548590  0.07587400     0.10200
H491        H  0.39874368  0.34600007  0.91568185     0.08200
Br492      Br  0.50507062  0.34642291  0.88006768    -0.02400
loop_ 
_geom_bond_atom_site_label_1 
_geom_bond_atom_site_label_2 
_geom_bond_distance 
_geom_bond_site_symmetry_2 
_ccdc_geom_bond_type 
O1            V9   1.909       .  S
O1           C11   1.266       .  A
O2            V9   1.901       .  S
O2           C12   1.266   1_556  A
O3            V9   1.910       .  S
O3           C13   1.268   1_556  A
O4            V9   1.908       .  S
O4           C14   1.265       .  A
O5           V10   1.901       .  S
O5           C14   1.264   1_554  A
O6           V10   1.900       .  S
O6           C13   1.264       .  A
O7           V10   1.902       .  S
O7           C12   1.265       .  A
O8           V10   1.896       .  S
O8           C11   1.265   1_554  A
V9           V10   2.083   1_556  T
C11         C484   1.493       .  S
C12         C189   1.498       .  S
C13         C325   1.497       .  S
C14         C474   1.477       .  S
O15          V23   1.906       .  S
O15          C25   1.265       .  A
O16          V23   1.898       .  S
O16          C26   1.265   1_556  A
O17          V23   1.899       .  S
O17          C27   1.265   1_556  A
O18          V23   1.905       .  S
O18          C28   1.266       .  A
O19          V24   1.899       .  S
O19          C28   1.263   1_554  A
O20          V24   1.903       .  S
O20          C27   1.266       .  A
O21          V24   1.904       .  S
O21          C26   1.265       .  A
O22          V24   1.898       .  S
O22          C25   1.266   1_554  A
V23          V24   2.082   1_556  T
C25         C467   1.488       .  S
C26         C360   1.498       .  S
C27         C191   1.497       .  S
C28         C487   1.492       .  S
O29          V37   1.901       .  S
O29          C39   1.263   1_556  A
O30          V37   1.901       .  S
O30          C40   1.265   1_556  A
O31          V37   1.903       .  S
O31          C41   1.266   1_556  A
O32          V37   1.902       .  S
O32          C42   1.266   1_556  A
O33          V38   1.903       .  S
O33          C42   1.264       .  A
O34          V38   1.899       .  S
O34          C41   1.264       .  A
O35          V38   1.911       .  S
O35          C40   1.267       .  A
O36          V38   1.911       .  S
O36          C39   1.267       .  A
V37          V38   2.083   1_556  T
C39         C477   1.477       .  S
C40         C327   1.506       .  S
C41         C225   1.500       .  S
C42         C457   1.485       .  S
O43          V51   1.899       .  S
O43          C53   1.264   1_556  A
O44          V51   1.902       .  S
O44          C54   1.265   1_556  A
O45          V51   1.900       .  S
O45          C55   1.266   1_556  A
O46          V51   1.907       .  S
O46          C56   1.266   1_556  A
O47          V52   1.897       .  S
O47          C56   1.264       .  A
O48          V52   1.905       .  S
O48          C55   1.265       .  A
O49          V52   1.905       .  S
O49          C54   1.267       .  A
O50          V52   1.909       .  S
O50          C53   1.267       .  A
V51          V52   2.082   1_556  T
C53         C454   1.485       .  S
C54         C223   1.498       .  S
C55         C362   1.495       .  S
C56         C464   1.488       .  S
O57          V65   1.902       .  S
O57          C67   1.265       .  A
O58          V65   1.894       .  S
O58          C68   1.264       .  A
O59          V65   1.896       .  S
O59          C69   1.264       .  A
O60          V65   1.902       .  S
O60          C70   1.264       .  A
O61          V66   1.908       .  S
O61          C70   1.267       .  A
O62          V66   1.910   1_565  S
O62          C69   1.267   1_565  A
O63          V66   1.908   1_565  S
O63          C68   1.266   1_565  A
O64          V66   1.899       .  S
O64          C67   1.264       .  A
V65          V66   2.082       .  T
C67         C434   1.486       .  S
C68         C328   1.496       .  S
C69         C294   1.500       .  S
C70         C447   1.495       .  S
O71          V79   1.910       .  S
O71          C81   1.269       .  A
O72          V79   1.904       .  S
O72          C82   1.266       .  A
O73          V79   1.894       .  S
O73          C83   1.263       .  A
O74          V79   1.891       .  S
O74          C84   1.263       .  A
O75          V80   1.905       .  S
O75          C84   1.266       .  A
O76          V80   1.904       .  S
O76          C83   1.266       .  A
O77          V80   1.894       .  S
O77          C82   1.264       .  A
O78          V80   1.897       .  S
O78          C81   1.262       .  A
V79          V80   2.080       .  T
C81         C444   1.494       .  S
C82         C292   1.490       .  S
C83         C361   1.492       .  S
C84         C424   1.489       .  S
O85          V93   1.901       .  S
O85          C95   1.264       .  A
O86          V93   1.902       .  S
O86          C96   1.266       .  A
O87          V93   1.908       .  S
O87          C97   1.266       .  A
O88          V93   1.906       .  S
O88          C98   1.267       .  A
O89          V94   1.900       .  S
O89          C98   1.264       .  A
O90          V94   1.893       .  S
O90          C97   1.263       .  A
O91          V94   1.896       .  S
O91          C96   1.263       .  A
O92          V94   1.897       .  S
O92          C95   1.265       .  A
V93          V94   2.081       .  T
C95         C427   1.489       .  S
C96         C359   1.495       .  S
C97         C259   1.498       .  S
C98         C414   1.492       .  S
O99         V107   1.899       .  S
O99         C109   1.263       .  A
O100        V107   1.898       .  S
O100        C110   1.265       .  A
O101        V107   1.907       .  S
O101        C111   1.267       .  A
O102        V107   1.910       .  S
O102        C112   1.266       .  A
O103        V108   1.893       .  S
O103        C112   1.264       .  A
O104        V108   1.899       .  S
O104        C111   1.264       .  A
O105        V108   1.904       .  S
O105        C110   1.266       .  A
O106        V108   1.909       .  S
O106        C109   1.268       .  A
V107        V108   2.081       .  T
C109        C417   1.493       .  S
C110        C257   1.495       .  S
C111        C326   1.500       .  S
C112        C437   1.488       .  S
O113        V121   1.911   1_455  S
O113        C123   1.267   1_455  A
O114        V121   1.906       .  S
O114        C124   1.267       .  A
O115        V121   1.897   1_455  S
O115        C125   1.263   1_455  A
O116        V121   1.899   1_455  S
O116        C126   1.265   1_455  A
O117        V122   1.898       .  S
O117        C126   1.264       .  A
O118        V122   1.903       .  S
O118        C125   1.267       .  A
O119        V122   1.897       .  S
O119        C124   1.263       .  A
O120        V122   1.892       .  S
O120        C123   1.263       .  A
V121        V122   2.081       .  T
C123        C407   1.487       .  S
C124        C293   1.499       .  S
C125        C226   1.498       .  S
C126        C394   1.488       .  S
O127        V135   1.899       .  S
O127        C137   1.264       .  A
O128        V135   1.901       .  S
O128        C138   1.265       .  A
O129        V135   1.900       .  S
O129        C139   1.265       .  A
O130        V135   1.903       .  S
O130        C140   1.265       .  A
O131        V136   1.898       .  S
O131        C140   1.264       .  A
O132        V136   1.900       .  S
O132        C139   1.265       .  A
O133        V136   1.901       .  S
O133        C138   1.266       .  A
O134        V136   1.903       .  S
O134        C137   1.266       .  A
V135        V136   2.081       .  T
C137        C404   1.485       .  S
C138        C291   1.494       .  S
C139        C190   1.491       .  S
C140        C384   1.482       .  S
O141        V149   1.897       .  S
O141        C151   1.262   1_455  A
O142        V149   1.895   1_655  S
O142        C152   1.264       .  A
O143        V149   1.911       .  S
O143        C153   1.269   1_455  A
O144        V149   1.908       .  S
O144        C154   1.267   1_455  A
O145        V150   1.898       .  S
O145        C154   1.263       .  A
O146        V150   1.896       .  S
O146        C153   1.263       .  A
O147        V150   1.901       .  S
O147        C152   1.266       .  A
O148        V150   1.899       .  S
O148        C151   1.267       .  A
V149        V150   2.080   1_455  T
C151        C397   1.488       .  S
C152        C224   1.490       .  S
C153        C258   1.496       .  S
C154        C374   1.481       .  S
O155        V163   1.901       .  S
O155        C165   1.265       .  A
O156        V163   1.899       .  S
O156        C166   1.263       .  A
O157        V163   1.906       .  S
O157        C167   1.267       .  A
O158        V163   1.913       .  S
O158        C168   1.267       .  A
O159        V164   1.895       .  S
O159        C168   1.263       .  A
O160        V164   1.898       .  S
O160        C167   1.264       .  A
O161        V164   1.904       .  S
O161        C166   1.267       .  A
O162        V164   1.900       .  S
O162        C165   1.264       .  A
V163        V164   2.083       .  T
C165        C387   1.481       .  S
C166        C192   1.500       .  S
C167        C260   1.501       .  S
C168        C377   1.481       .  S
N169        C174   1.353       .  A
N169        C173   1.352       .  A
N169        H201   1.044       .  S
N170        C177   1.353       .  A
N170        C178   1.353       .  A
N171        C176   1.354       .  A
N171        C175   1.353   1_455  A
N171        H202   1.044   1_455  S
N172        C179   1.351   1_455  A
N172        C180   1.351       .  A
C173        C181   1.388       .  A
C173        C189   1.416   1_556  A
C174        C190   1.414       .  A
C174        C182   1.387       .  A
C175        C183   1.387   1_655  A
C175        C192   1.416       .  A
C176        C191   1.417       .  A
C176        C184   1.387       .  A
C177        C189   1.418       .  A
C177        C185   1.386       .  A
C178        C192   1.419       .  A
C178        C186   1.387       .  A
C179        C187   1.386   1_655  A
C179        C190   1.413       .  A
C180        C188   1.387       .  A
C180        C191   1.414   1_556  A
C181        C182   1.377       .  A
C181        H193   1.082       .  S
C182        H194   1.082       .  S
C183        C184   1.376       .  A
C183        H195   1.080       .  S
C184        H196   1.081       .  S
C185        C186   1.375       .  A
C185        H197   1.081       .  S
C186        H198   1.080       .  S
C187        C188   1.375       .  A
C187        H199   1.082       .  S
C188        H200   1.081       .  S
N203        C208   1.352       .  A
N203        C207   1.353       .  A
N203        H235   1.043   1_455  S
N204        C211   1.354       .  A
N204        C212   1.353       .  A
N205        C210   1.354       .  A
N205        C209   1.353       .  A
N205        H236   1.044       .  S
N206        C213   1.351       .  A
N206        C214   1.353       .  A
C207        C215   1.387       .  A
C207        C223   1.416       .  A
C208        C224   1.416   1_455  A
C208        C216   1.388       .  A
C209        C217   1.388       .  A
C209        C226   1.417       .  A
C210        C225   1.417   1_556  A
C210        C218   1.387       .  A
C211        C223   1.417   1_556  A
C211        C219   1.386       .  A
C212        C226   1.419   1_455  A
C212        C220   1.387       .  A
C213        C221   1.386       .  A
C213        C224   1.413       .  A
C214        C222   1.387       .  A
C214        C225   1.415       .  A
C215        C216   1.378       .  A
C215        H227   1.082       .  S
C216        H228   1.082       .  S
C217        C218   1.375       .  A
C217        H229   1.080       .  S
C218        H230   1.080       .  S
C219        C220   1.375       .  A
C219        H231   1.081       .  S
C220        H232   1.081       .  S
C221        C222   1.373       .  A
C221        H233   1.082       .  S
C222        H234   1.081       .  S
N237        C242   1.354       .  A
N237        C241   1.353   1_565  A
N237        H269   1.046   1_565  S
N238        C245   1.351       .  A
N238        C246   1.353       .  A
N239        C244   1.354       .  A
N239        C243   1.354   1_455  A
N239        H270   1.046   1_455  S
N240        C247   1.352       .  A
N240        C248   1.351   1_565  A
C241        C249   1.387   1_545  A
C241        C257   1.417       .  A
C242        C258   1.419       .  A
C242        C250   1.388       .  A
C243        C251   1.388   1_655  A
C243        C260   1.420       .  A
C244        C259   1.417       .  A
C244        C252   1.386       .  A
C245        C257   1.415       .  A
C245        C253   1.387       .  A
C246        C260   1.415       .  A
C246        C254   1.387       .  A
C247        C255   1.384       .  A
C247        C258   1.412   1_455  A
C248        C256   1.389   1_545  A
C248        C259   1.417       .  A
C249        C250   1.379       .  A
C249        H261   1.082       .  S
C250        H262   1.082       .  S
C251        C252   1.377       .  A
C251        H263   1.080       .  S
C252        H264   1.080       .  S
C253        C254   1.375       .  A
C253        H265   1.082       .  S
C254        H266   1.081       .  S
C255        C256   1.374       .  A
C255        H267   1.082       .  S
C256        H268   1.081       .  S
N271        C276   1.352       .  A
N271        C275   1.351   1_455  A
N271        H303   1.043   1_455  S
N272        C279   1.353       .  A
N272        C280   1.352       .  A
N273        C278   1.355       .  A
N273        C277   1.355       .  A
N273        H304   1.043   1_565  S
N274        C281   1.351       .  A
N274        C282   1.351   1_455  A
C275        C283   1.388   1_655  A
C275        C291   1.413       .  A
C276        C292   1.413       .  A
C276        C284   1.387       .  A
C277        C285   1.386       .  A
C277        C294   1.419   1_565  A
C278        C293   1.422       .  A
C278        C286   1.388       .  A
C279        C291   1.416       .  A
C279        C287   1.385       .  A
C280        C294   1.418       .  A
C280        C288   1.388       .  A
C281        C289   1.386       .  A
C281        C292   1.413   1_565  A
C282        C290   1.387   1_655  A
C282        C293   1.413       .  A
C283        C284   1.378       .  A
C283        H295   1.082       .  S
C284        H296   1.082       .  S
C285        C286   1.378       .  A
C285        H297   1.081       .  S
C286        H298   1.080       .  S
C287        C288   1.374       .  A
C287        H299   1.080       .  S
C288        H300   1.081       .  S
C289        C290   1.374       .  A
C289        H301   1.082       .  S
C290        H302   1.081       .  S
N305        C310   1.352       .  A
N305        C309   1.355       .  A
N305        H337   1.043       .  S
N306        C313   1.351       .  A
N306        C314   1.349       .  A
N307        C312   1.354       .  A
N307        C311   1.355       .  A
N307        H338   1.044   1_565  S
N308        C315   1.355       .  A
N308        C316   1.356       .  A
C309        C317   1.387       .  A
C309        C325   1.418       .  A
C310        C326   1.417       .  A
C310        C318   1.388       .  A
C311        C319   1.387       .  A
C311        C328   1.419   1_565  A
C312        C327   1.420   1_556  A
C312        C320   1.388       .  A
C313        C325   1.411   1_556  A
C313        C321   1.385       .  A
C314        C328   1.414       .  A
C314        C322   1.388       .  A
C315        C323   1.388       .  A
C315        C326   1.421   1_565  A
C316        C324   1.386       .  A
C316        C327   1.420       .  A
C317        C318   1.379       .  A
C317        H329   1.082       .  S
C318        H330   1.082       .  S
C319        C320   1.378       .  A
C319        H331   1.080       .  S
C320        H332   1.081       .  S
C321        C322   1.375       .  A
C321        H333   1.082       .  S
C322        H334   1.082       .  S
C323        C324   1.376       .  A
C323        H335   1.081       .  S
C324        H336   1.081       .  S
N339        C344   1.355       .  A
N339        C343   1.352       .  A
N339        H371   1.044       .  S
N340        C347   1.351   1_565  A
N340        C348   1.353       .  A
N341        C346   1.352   1_565  A
N341        C345   1.351       .  A
N341        H372   1.044   1_565  S
N342        C349   1.351       .  A
N342        C350   1.351       .  A
C343        C351   1.388       .  A
C343        C359   1.418       .  A
C344        C360   1.416       .  A
C344        C352   1.386       .  A
C345        C353   1.388       .  A
C345        C362   1.414   1_556  A
C346        C361   1.412       .  A
C346        C354   1.387   1_545  A
C347        C359   1.418       .  A
C347        C355   1.388   1_545  A
C348        C362   1.416       .  A
C348        C356   1.386       .  A
C349        C357   1.387       .  A
C349        C360   1.414   1_556  A
C350        C358   1.386       .  A
C350        C361   1.413       .  A
C351        C352   1.377       .  A
C351        H363   1.080       .  S
C352        H364   1.081       .  S
C353        C354   1.377       .  A
C353        H365   1.082       .  S
C354        H366   1.082       .  S
C355        C356   1.377       .  A
C355        H367   1.081       .  S
C356        H368   1.081       .  S
C357        C358   1.373       .  A
C357        H369   1.081       .  S
C358        H370   1.081       .  S
C373        C374   1.406       .  A
C373        C378   1.402       .  A
C373        H380   1.084       .  S
C374        C375   1.410       .  A
C375        C376   1.400       .  A
C375       Br382   1.920   1_655  S
C376        C377   1.405       .  A
C376        H381   1.084   1_655  S
C377        C378   1.410       .  A
C378       Br379   1.918       .  S
C383        C384   1.406       .  A
C383        C388   1.400       .  A
C383        H390   1.084   1_655  S
C384        C385   1.412       .  A
C385        C386   1.399       .  A
C385       Br392   1.919       .  S
C386        C387   1.405       .  A
C386        H391   1.084       .  S
C387        C388   1.412       .  A
C388       Br389   1.921   1_655  S
C393        C394   1.407   1_455  A
C393        C398   1.400       .  A
C393        H400   1.083       .  S
C394        C395   1.415       .  A
C395        C396   1.397       .  A
C395       Br402   1.922       .  S
C396        C397   1.405       .  A
C396        H401   1.083       .  S
C397        C398   1.417   1_655  A
C398       Br399   1.923       .  S
C403        C404   1.406       .  A
C403        C408   1.402   1_655  A
C403        H410   1.083   1_655  S
C404        C405   1.414       .  A
C405        C406   1.398       .  A
C405       Br412   1.923       .  S
C406        C407   1.406       .  A
C406        H411   1.083       .  S
C407        C408   1.413   1_655  A
C408       Br409   1.920       .  S
C413        C414   1.406       .  A
C413        C418   1.402       .  A
C413        H420   1.083       .  S
C414        C415   1.416       .  A
C415        C416   1.401       .  A
C415       Br422   1.922   1_545  S
C416        C417   1.406       .  A
C416        H421   1.083   1_545  S
C417        C418   1.418       .  A
C418       Br419   1.923       .  S
C423        C424   1.408       .  A
C423        C428   1.398       .  A
C423        H430   1.083       .  S
C424        C425   1.414       .  A
C425        C426   1.399       .  A
C425       Br432   1.922   1_545  S
C426        C427   1.407       .  A
C426        H431   1.083   1_545  S
C427        C428   1.415       .  A
C428       Br429   1.923       .  S
C433        C434   1.407       .  A
C433        C438   1.403       .  A
C433        H440   1.083       .  S
C434        C435   1.413       .  A
C435        C436   1.397       .  A
C435       Br442   1.923   1_545  S
C436        C437   1.406       .  A
C436        H441   1.083   1_545  S
C437        C438   1.414       .  A
C438       Br439   1.920       .  S
C443        C444   1.405       .  A
C443        C448   1.402       .  A
C443        H450   1.083       .  S
C444        C445   1.418   1_545  A
C445        C446   1.402   1_565  A
C445       Br452   1.923       .  S
C446        C447   1.407       .  A
C446        H451   1.083   1_545  S
C447        C448   1.417       .  A
C448       Br449   1.922       .  S
C453        C454   1.406       .  A
C453        C458   1.404       .  A
C453        H460   1.084       .  S
C454        C455   1.413   1_554  A
C455        C456   1.399       .  A
C455       Br462   1.921       .  S
C456        C457   1.404   1_556  A
C456        H461   1.084       .  S
C457        C458   1.414       .  A
C458       Br459   1.921       .  S
C463        C464   1.407   1_556  A
C463        C468   1.404       .  A
C463        H470   1.083       .  S
C464        C465   1.414       .  A
C465        C466   1.397       .  A
C465       Br472   1.922       .  S
C466        C467   1.404   1_554  A
C466        H471   1.083       .  S
C467        C468   1.415       .  A
C468       Br469   1.921       .  S
C473        C474   1.404       .  A
C473        C478   1.404       .  A
C473        H480   1.084       .  S
C474        C475   1.408   1_556  A
C475        C476   1.401       .  A
C475       Br482   1.919       .  S
C476        C477   1.403       .  A
C476        H481   1.084       .  S
C477        C478   1.410   1_554  A
C478       Br479   1.920       .  S
C483        C484   1.407   1_554  A
C483        C488   1.398       .  A
C483        H490   1.083       .  S
C484        C485   1.416       .  A
C485        C486   1.403       .  A
C485       Br492   1.921       .  S
C486        C487   1.407       .  A
C486        H491   1.083       .  S
C487        C488   1.416   1_556  A
C488       Br489   1.923       .  S
