geometry optimzed in LAMMPS
_audit_creation_date              2020-12-01 
_audit_creation_method            'lammps2cif' 
_symmetry_space_group_name_H-M    'P1' 
_symmetry_Int_Tables_number       1 
_symmetry_cell_setting            triclinic 
loop_ 
_symmetry_equiv_pos_as_xyz 
  x,y,z 
_cell_length_a                    44.20859698 
_cell_length_b                    44.278086944852035 
_cell_length_c                    71.04942076400575 
_cell_angle_alpha                 89.95951475676391 
_cell_angle_beta                  89.96609701457052 
_cell_angle_gamma                 119.92580669911435 
loop_ 
_atom_site_label 
_atom_site_type_symbol 
_atom_site_fract_x 
_atom_site_fract_y 
_atom_site_fract_z 
_atom_site_charge 
Zn1        Zn  0.12068719  0.31171752  0.62509312     1.49700
Zn2        Zn  0.16639455  0.33251603  0.66338294     1.49400
Zn3        Zn  0.19189389  0.30975167  0.62573524     1.49100
Zn4        Zn  0.19291773  0.38205761  0.62601023     1.49500
O5          O  0.16800845  0.33397553  0.63538586    -1.83200
O6          O  0.08496451  0.29462058  0.64570409    -0.73800
O7          O  0.19139942  0.30643778  0.67333782    -0.73600
O8          O  0.16019409  0.26889193  0.60928291    -0.73100
O9          O  0.11477907  0.30605635  0.67251845    -0.73800
O10         O  0.11121942  0.27132466  0.60835170    -0.73400
O11         O  0.20913261  0.29260470  0.64701955    -0.74000
O12         O  0.23293436  0.39071265  0.60914811    -0.73400
O13         O  0.19191964  0.38347406  0.67363947    -0.74100
O14         O  0.23326896  0.34076308  0.60941103    -0.73500
O15         O  0.21261134  0.41519252  0.64748466    -0.74000
O16         O  0.16212726  0.39454296  0.61060023    -0.73900
O17         O  0.11244910  0.34418373  0.60908819    -0.73700
C18         C  0.08584171  0.29339907  0.66357432     0.78100
C19         C  0.20712187  0.29262850  0.66488345     0.78600
C20         C  0.12923425  0.25753647  0.60334049     0.77600
C21         C  0.24579081  0.37204995  0.60385376     0.77900
C22         C  0.20977688  0.41291872  0.66531333     0.79100
C23         C  0.13100512  0.37609179  0.60463278     0.78100
C24         C  0.33297167  0.16503326  0.71860747     0.46400
H25         H  0.33221596  0.16419295  0.70299479    -0.02600
C26         C  0.33460764  0.16631414  0.75538931     0.46500
H27         H  0.33545796  0.16695371  0.77103211    -0.02600
C28         C  0.31439523  0.12836801  0.72782957    -0.16300
C29         C  0.37039938  0.18319029  0.72685241    -0.16000
C30         C  0.31508026  0.18423136  0.72757190    -0.16400
C31         C  0.31602793  0.12956949  0.74717764    -0.16400
C32         C  0.37071931  0.18437354  0.74620689    -0.16000
C33         C  0.31602887  0.18437728  0.74694000    -0.16300
Zn34       Zn  0.16648933  0.33376697  0.86257620     1.49700
Zn35       Zn  0.14179871  0.28472598  0.82664354     1.49400
Zn36       Zn  0.14218428  0.35804732  0.82681116     1.49100
Zn37       Zn  0.21438781  0.35633754  0.82598660     1.49500
O38         O  0.16617283  0.33321675  0.83526153    -1.83200
O39         O  0.14528894  0.28613705  0.87312787    -0.73800
O40         O  0.09970379  0.27561980  0.81155648    -0.73600
O41         O  0.12558128  0.37568340  0.84866361    -0.73100
O42         O  0.12294087  0.25115951  0.84842714    -0.73800
O43         O  0.13974724  0.35476236  0.87342346    -0.73400
O44         O  0.10000894  0.32615019  0.81093629    -0.74000
O45         O  0.22489942  0.39964352  0.81114709    -0.73400
O46         O  0.17428073  0.27308165  0.81182175    -0.74100
O47         O  0.17514040  0.40086489  0.81233797    -0.73500
O48         O  0.22359686  0.32404718  0.81009112    -0.74000
O49         O  0.24879129  0.37130281  0.84765742    -0.73900
O50         O  0.21460751  0.36045484  0.87266300    -0.73700
C51         C  0.12769752  0.25596051  0.86606151     0.78100
C52         C  0.08609039  0.29393552  0.80675933     0.78600
C53         C  0.12608939  0.37142474  0.86634806     0.77600
C54         C  0.20698027  0.41424750  0.80745302     0.77900
C55         C  0.20591054  0.29159728  0.80645576     0.79100
C56         C  0.24458594  0.37233481  0.86532335     0.78100
Zn57       Zn  0.28470221  0.14291202  0.32409167     1.49700
Zn58       Zn  0.35756103  0.14180616  0.32426074     1.49400
Zn59       Zn  0.35846214  0.21560127  0.32421544     1.49100
Zn60       Zn  0.33355575  0.16673890  0.35982783     1.49500
O61         O  0.33355762  0.16673447  0.33267095    -1.83200
O62         O  0.27384645  0.09912468  0.30948704    -0.73800
O63         O  0.40124507  0.17474498  0.30965536    -0.73600
O64         O  0.32584615  0.22626514  0.30944329    -0.73100
O65         O  0.32481619  0.10026519  0.30814456    -0.73800
O66         O  0.27569196  0.17584467  0.30819632    -0.73400
O67         O  0.39951895  0.22417619  0.30790023    -0.74000
O68         O  0.35920956  0.21353115  0.37042834    -0.73400
O69         O  0.37264147  0.12278259  0.34638284    -0.74100
O70         O  0.37744572  0.25004016  0.34625463    -0.73500
O71         O  0.35454068  0.14086050  0.37073459    -0.74000
O72         O  0.28665388  0.14600886  0.37052671    -0.73900
O73         O  0.25066808  0.12794292  0.34610747    -0.73700
C74         C  0.29235903  0.08592056  0.30423657     0.78100
C75         C  0.41402207  0.20619448  0.30412483     0.78600
C76         C  0.29410856  0.20818778  0.30424682     0.77600
C77         C  0.37505996  0.24419572  0.36391080     0.77900
C78         C  0.36913598  0.12487524  0.36406121     0.79100
C79         C  0.25615966  0.13147207  0.36377642     0.78100
C80         C  0.16641492  0.33337709  0.21520099     0.46400
H81         H  0.16640624  0.33339893  0.19955957    -0.02600
C82         C  0.16650285  0.33337139  0.25202402     0.46500
H83         H  0.16655141  0.33337924  0.26766456    -0.02600
C84         C  0.12973779  0.31451287  0.22401359    -0.16300
C85         C  0.18558719  0.31586599  0.22394142    -0.16000
C86         C  0.18413631  0.36992256  0.22395452    -0.16400
C87         C  0.12987512  0.31442174  0.24330259    -0.16400
C88         C  0.18565329  0.31587739  0.24321778    -0.16000
C89         C  0.18394601  0.36999861  0.24323955    -0.16300
Zn90       Zn  0.35753124  0.21512692  0.14296966     1.49700
Zn91       Zn  0.28397716  0.14222424  0.14396394     1.49400
Zn92       Zn  0.33137649  0.16478665  0.10798434     1.49100
Zn93       Zn  0.35740125  0.14231542  0.14386560     1.49500
O94         O  0.33254541  0.16612048  0.13507674    -1.83200
O95         O  0.32590884  0.22535019  0.15912222    -0.73800
O96         O  0.24871095  0.12335210  0.12244111    -0.73600
O97         O  0.35274311  0.21130685  0.09669002    -0.73100
O98         O  0.27455957  0.17603265  0.15839555    -0.73800
O99         O  0.37277562  0.24829888  0.12060589    -0.73400
O100        O  0.28403147  0.13929985  0.09774894    -0.74000
O101        O  0.37821572  0.12880020  0.12208157    -0.73400
O102        O  0.27502309  0.10069545  0.15997924    -0.74100
O103        O  0.35686482  0.14310559  0.09757484    -0.73500
O104        O  0.32385032  0.09783480  0.15747425    -0.74000
O105        O  0.39778723  0.17417633  0.16084681    -0.73900
O106        O  0.40119091  0.22581861  0.15735195    -0.73700
C107        C  0.29355502  0.20777813  0.16328536     0.78100
C108        C  0.25367768  0.12460996  0.10473531     0.78600
C109        C  0.36843802  0.24210224  0.10302701     0.77600
C110        C  0.37468456  0.13058703  0.10439767     0.77900
C111        C  0.29247038  0.08535309  0.16311449     0.79100
C112        C  0.41314650  0.20696542  0.16374491     0.78100
Zn113      Zn  0.99922696  0.00070388  0.01166032     1.49700
Zn114      Zn  0.47284396  0.02229378  0.97590059     1.49400
Zn115      Zn  0.04761749  0.02691018  0.97614847     1.49100
Zn116      Zn  0.47716775  0.45195058  0.97632733     1.49500
O117        O  0.99918087  0.00038980  0.98472028    -1.83200
O118        O  0.47775623  0.02651187  0.02196834    -0.73800
O119        O  0.00189906  0.06078887  0.95764748    -0.73600
O120        O  0.08233130  0.04258568  0.99775299    -0.73100
O121        O  0.45772090  0.04220179  0.99739613    -0.73800
O122        O  0.04626127  0.02246975  0.02215471    -0.73400
O123        O  0.05539156  0.06859043  0.96126619    -0.74000
O124        O  0.01182580  0.44429224  0.96205677    -0.73400
O125        O  0.43105866  0.48825388  0.96130176    -0.74100
O126        O  0.05783916  0.49751933  0.95860875    -0.73500
O127        O  0.43834012  0.44222616  0.95803144    -0.74000
O128        O  0.45809269  0.41735907  0.99820628    -0.73900
O129        O  0.47458314  0.45381225  0.02239123    -0.73700
C130        C  0.46230197  0.04149761  0.01506257     0.78100
C131        C  0.03438803  0.07704844  0.95398159     0.78600
C132        C  0.07678819  0.03818336  0.01540256     0.77600
C133        C  0.04170791  0.46501625  0.95511484     0.77900
C134        C  0.42234972  0.45869201  0.95415299     0.79100
C135        C  0.45988083  0.42315973  0.01585303     0.78100
Zn136      Zn  0.04953742  0.02444809  0.49256146     1.49700
Zn137      Zn  0.47728580  0.45105619  0.49175903     1.49400
Zn138      Zn  0.47623249  0.02409663  0.49300662     1.49100
Zn139      Zn  0.00094705  0.50135071  0.45679847     1.49500
O140        O  0.00095001  0.50024476  0.48387669    -1.83200
O141        O  0.05904408  0.49252638  0.50853568    -0.73800
O142        O  0.43580383  0.44059579  0.50797013    -0.73600
O143        O  0.00798554  0.06468367  0.50987933    -0.73100
O144        O  0.00922700  0.44187097  0.50797890    -0.73800
O145        O  0.05815962  0.06429753  0.50958270    -0.73400
O146        O  0.43557614  0.49079165  0.50909404    -0.74000
O147        O  0.47513536  0.02332887  0.44673501    -0.73400
O148        O  0.46121612  0.41734948  0.46957184    -0.74100
O149        O  0.45759352  0.04115294  0.47147617    -0.73500
O150        O  0.47918944  0.45459284  0.44569383    -0.74000
O151        O  0.04825802  0.02683102  0.44626961    -0.73900
O152        O  0.08415916  0.04283427  0.47075754    -0.73700
C153        C  0.04051302  0.46087870  0.51362520     0.78100
C154        C  0.42299787  0.45901599  0.51387602     0.78600
C155        C  0.03941188  0.07683544  0.51534645     0.77600
C156        C  0.45941570  0.03799775  0.45372815     0.77900
C157        C  0.46446570  0.42371748  0.45197319     0.79100
C158        C  0.07877063  0.04151064  0.45307526     0.78100
C159        C  0.13044520  0.06260121  0.05483882     0.30700
C160        C  0.13784207  0.06586639  0.07416246    -0.35600
C161        C  0.17326145  0.08364741  0.07892776     0.16700
C162        C  0.19936840  0.09708559  0.06552318     0.22500
C163        C  0.19196760  0.09383716  0.04622464    -0.33700
C164        C  0.15660531  0.07615376  0.04146716     0.16600
O165        O  0.09923064  0.04739714  0.04727407    -0.25700
C166        C  0.10545540  0.05130060  0.02886333     0.06400
C167        C  0.14069689  0.06896793  0.02434005    -0.30600
O168        O  0.23062225  0.11285040  0.07301103    -0.22400
C169        C  0.22462436  0.10958475  0.09143810    -0.02400
C170        C  0.18936533  0.09165195  0.09604682    -0.16900
H171        H  0.11743140  0.05544886  0.08470019     0.21100
H172        H  0.21236872  0.10450895  0.03568612     0.19500
H173        H  0.15270998  0.07570858  0.01055510     0.19400
H174        H  0.17747397  0.08558745  0.10986982     0.15300
C175        C  0.41877839  0.34482248  0.04109239     0.30700
C176        C  0.39910369  0.30877817  0.04389944    -0.35600
C177        C  0.39423126  0.29767606  0.06268267     0.16700
C178        C  0.40771601  0.32030776  0.07773072     0.22500
C179        C  0.42731910  0.35634571  0.07493116    -0.33700
C180        C  0.43216183  0.36743845  0.05615253     0.16600
O181        O  0.42669159  0.36108028  0.02471442    -0.25700
C182        C  0.44523785  0.39449251  0.02944936     0.06400
C183        C  0.44949120  0.39992304  0.04878081    -0.30600
O184        O  0.40030347  0.30405170  0.09408975    -0.22400
C185        C  0.38184176  0.27062716  0.08937378    -0.02400
C186        C  0.37722687  0.26515742  0.07006176    -0.16900
H187        H  0.38844836  0.29066150  0.03227855     0.21100
H188        H  0.43813529  0.37445106  0.08654943     0.19500
H189        H  0.46339035  0.42436787  0.05630415     0.19400
H190        H  0.36361414  0.24067455  0.06255274     0.15300
C191        C  0.44105616  0.07443358  0.05416346     0.30700
C192        C  0.43998282  0.08089674  0.07339279    -0.35600
C193        C  0.42012487  0.09632949  0.07824473     0.16700
C194        C  0.40280452  0.10490867  0.06500464     0.22500
C195        C  0.40408038  0.09867187  0.04577851    -0.33700
C196        C  0.42378920  0.08310670  0.04093854     0.16600
O197        O  0.45697363  0.05909841  0.04662331    -0.25700
C198        C  0.44991489  0.05800051  0.02836598     0.06400
C199        C  0.42941993  0.07263293  0.02391642    -0.30600
O200        O  0.38503945  0.11821006  0.07261924    -0.22400
C201        C  0.39089810  0.11809740  0.09095410    -0.02400
C202        C  0.41265570  0.10487057  0.09537777    -0.16900
H203        H  0.45317490  0.07382435  0.08382797     0.21100
H204        H  0.39021704  0.10499571  0.03538994     0.19500
H205        H  0.41958596  0.07456541  0.01029131     0.19400
H206        H  0.42124470  0.10164066  0.10910970     0.15300
C207        C  0.04610768  0.26049257  0.20557575     0.30700
C208        C  0.01318606  0.23036915  0.20444825    -0.35600
C209        C  0.48947675  0.23178350  0.19190452     0.16700
C210        C  0.49735750  0.26109911  0.18145135     0.22500
C211        C  0.03049213  0.29116408  0.18242691    -0.33700
C212        C  0.05449964  0.28949741  0.19471331     0.16600
O213        O  0.07173449  0.26510631  0.21681514    -0.25700
C214        C  0.09716483  0.29725768  0.21291350     0.06400
C215        C  0.08808833  0.31368063  0.19917254    -0.30600
O216        O  0.47115858  0.25662463  0.17065236    -0.22400
C217        C  0.44639359  0.22388175  0.17405738    -0.02400
C218        C  0.45637775  0.20712665  0.18711746    -0.16900
H219        H  0.00653002  0.20739994  0.21278787     0.21100
H220        H  0.03711572  0.31418190  0.17414017     0.19500
H221        H  0.10337163  0.34010822  0.19398254     0.19400
H222        H  0.44152936  0.18055887  0.19216714     0.15300
C223        C  0.21144671  0.45165978  0.20386792     0.30700
C224        C  0.21213827  0.48338196  0.20138002    -0.35600
C225        C  0.23862865  0.00774653  0.18971572     0.16700
C226        C  0.26301136  0.00148520  0.18116309     0.22500
C227        C  0.26203092  0.46946600  0.18343311    -0.33700
C228        C  0.23517589  0.44487205  0.19493646     0.16600
O229        O  0.18986148  0.42591617  0.21485351    -0.25700
C230        C  0.19942419  0.40205567  0.21266624     0.06400
C231        C  0.22730439  0.41220044  0.20037161    -0.30600
O232        O  0.28577057  0.02824867  0.17104315    -0.22400
C233        C  0.27551941  0.05171622  0.17300920    -0.02400
C234        C  0.24623930  0.04029758  0.18439215    -0.16900
H235        H  0.19350531  0.48883452  0.20823658     0.21100
H236        H  0.28092157  0.46416363  0.17676621     0.19500
H237        H  0.24077428  0.39821779  0.19674889     0.19400
H238        H  0.23255969  0.05400894  0.18815267     0.15300
C239        C  0.24084434  0.28877186  0.20430770     0.30700
C240        C  0.27174929  0.28746941  0.20229412    -0.35600
C241        C  0.26999750  0.26155744  0.19026458     0.16700
C242        C  0.23973777  0.23815421  0.18110450     0.22500
C243        C  0.20899845  0.23988341  0.18284754    -0.33700
C244        C  0.21090825  0.26619012  0.19462456     0.16600
O245        O  0.23618117  0.30980620  0.21549992    -0.25700
C246        C  0.20304369  0.30102847  0.21268661     0.06400
C247        C  0.18604975  0.27426505  0.19974513    -0.30600
O248        O  0.24379507  0.21559230  0.17087104    -0.22400
C249        C  0.27719209  0.22495198  0.17330254    -0.02400
C250        C  0.29485685  0.25352021  0.18514215    -0.16900
H251        H  0.29541675  0.30521746  0.20973349     0.21100
H252        H  0.18519254  0.22182950  0.17561563     0.19500
H253        H  0.15891615  0.26148966  0.19553279     0.19400
H254        H  0.32201240  0.26643189  0.18932220     0.15300
C255        C  0.23868060  0.45163519  0.26358209     0.30700
C256        C  0.27026559  0.48248612  0.26688998    -0.35600
C257        C  0.26817315  0.00771748  0.27784451     0.16700
C258        C  0.23698975  0.00344306  0.28458403     0.22500
C259        C  0.20537379  0.47229524  0.28149506    -0.33700
C260        C  0.20757360  0.44668008  0.27087956     0.16600
O261        O  0.23462647  0.42502910  0.25336524    -0.25700
C262        C  0.20059646  0.40240148  0.25441696     0.06400
C263        C  0.18238924  0.41434982  0.26514166    -0.30600
O264        O  0.24116542  0.03069511  0.29430746    -0.22400
C265        C  0.27551463  0.05256145  0.29392707    -0.02400
C266        C  0.29359489  0.03954290  0.28392138    -0.16900
H267        H  0.29482454  0.48647868  0.26135944     0.21100
H268        H  0.18079537  0.46833917  0.28697112     0.19500
H269        H  0.15454194  0.40166676  0.26762693     0.19400
H270        H  0.32146213  0.05165055  0.28163734     0.15300
C271        C  0.49778128  0.23576329  0.28581447     0.30700
C272        C  0.03033048  0.23764262  0.28412468    -0.35600
C273        C  0.05478727  0.26417668  0.27244587     0.16700
C274        C  0.04742135  0.28683510  0.26281247     0.22500
C275        C  0.01510594  0.28530859  0.26471702    -0.33700
C276        C  0.49088881  0.25916199  0.27663705     0.16600
O277        O  0.47124124  0.21328354  0.29615677    -0.25700
C278        C  0.44722435  0.22269469  0.29375616     0.06400
C279        C  0.45804280  0.25115200  0.28180057    -0.30600
O280        O  0.07322788  0.30817938  0.25176237    -0.22400
C281        C  0.09765573  0.29949939  0.25460630    -0.02400
C282        C  0.08783517  0.27249167  0.26742187    -0.16900
H283        H  0.03614227  0.21963419  0.29137426     0.21100
H284        H  0.00919576  0.30312643  0.25733075     0.19500
H285        H  0.44389045  0.26421729  0.27770890     0.19400
H286        H  0.10221979  0.25970492  0.27158503     0.15300
C287        C  0.23920314  0.29147656  0.26746696     0.30700
C288        C  0.27035615  0.29595264  0.27525174    -0.35600
C289        C  0.26948271  0.26563287  0.28183590     0.16700
C290        C  0.23999407  0.23311185  0.28086215     0.22500
C291        C  0.20888214  0.22860219  0.27298046    -0.33700
C292        C  0.20973818  0.25892636  0.26640829     0.16800
O293        O  0.23437388  0.31613198  0.26011325    -0.25700
C294        C  0.20132519  0.29915226  0.25442123     0.06400
C295        C  0.18475429  0.26352818  0.25785024    -0.30600
O296        O  0.24483821  0.20847279  0.28824431    -0.22400
C297        C  0.27792873  0.22540081  0.29394599    -0.02400
C298        C  0.29454137  0.26102979  0.29028485    -0.16900
H299        H  0.29365983  0.32130169  0.27610052     0.21100
H300        H  0.18561022  0.20323608  0.27207521     0.19500
H301        H  0.15848319  0.24386403  0.25404703     0.19400
H302        H  0.32098151  0.28075405  0.29375125     0.15300
C303        C  0.20212409  0.10559997  0.40317769     0.30700
C304        C  0.19453026  0.10074657  0.42246898    -0.35600
C305        C  0.15907821  0.08304410  0.42717493     0.16700
C306        C  0.13305438  0.07109358  0.41376467     0.22500
C307        C  0.14065277  0.07597799  0.39448014    -0.33700
C308        C  0.17608804  0.09361049  0.38977368     0.16600
O309        O  0.23341818  0.12076693  0.39566224    -0.25700
C310        C  0.22739717  0.11842362  0.37723739     0.06400
C311        C  0.19219543  0.10185850  0.37267091    -0.30600
O312        O  0.10172994  0.05510249  0.42124429    -0.22400
C313        C  0.10767970  0.05681370  0.43966235    -0.02400
C314        C  0.14290218  0.07386486  0.44425495    -0.16900
H315        H  0.21483446  0.10990181  0.43303282     0.21100
H316        H  0.12034825  0.06648008  0.38390717     0.19500
H317        H  0.18031725  0.09628523  0.35885760     0.19400
H318        H  0.15473725  0.07868845  0.45806468     0.15300
C319        C  0.41507062  0.32223861  0.38946485     0.30700
C320        C  0.43282925  0.35828430  0.39245197    -0.35600
C321        C  0.43827719  0.36895446  0.41131140     0.16700
C322        C  0.42708440  0.34593871  0.42627633     0.22500
C323        C  0.40935332  0.30990778  0.42329442    -0.33700
C324        C  0.40394478  0.29924970  0.40444076     0.16600
O325        O  0.40679925  0.30631244  0.37299478    -0.25700
C326        C  0.39023104  0.27273015  0.37758793     0.06400
C327        C  0.38773822  0.26689391  0.39691950    -0.30600
O328        O  0.43478102  0.36181575  0.44274654    -0.22400
C329        C  0.45110716  0.39540221  0.43818155    -0.02400
C330        C  0.45403132  0.40131639  0.41885914    -0.16900
H331        H  0.44165980  0.37671175  0.38091293     0.21100
H332        H  0.40029659  0.29147833  0.43483570     0.19500
H333        H  0.37544979  0.24225267  0.40435728     0.19400
H334        H  0.46589992  0.42598404  0.41145454     0.15300
C335        C  0.42871151  0.06167664  0.41443254     0.30700
C336        C  0.42432859  0.06473557  0.39511674    -0.35600
C337        C  0.40657233  0.08238667  0.39031512     0.16700
C338        C  0.39389070  0.09588121  0.40366091     0.22500
C339        C  0.39807548  0.09262330  0.42300217    -0.33700
C340        C  0.41602214  0.07511257  0.42780856     0.16600
O341        O  0.44530751  0.04698953  0.42194893    -0.25700
C342        C  0.44333371  0.05100433  0.44037695     0.06400
C343        C  0.42532066  0.06828777  0.44493580    -0.30600
O344        O  0.37891467  0.11215112  0.39605251    -0.22400
C345        C  0.38204604  0.10909063  0.37762188    -0.02400
C346        C  0.39898497  0.09074364  0.37315849    -0.16900
H347        H  0.43450805  0.05450898  0.38458767     0.21100
H348        H  0.38846926  0.10342458  0.43352205     0.19500
H349        H  0.42018883  0.07507315  0.45873330     0.19400
H350        H  0.40520858  0.08492628  0.35938067     0.15300
C351        C  0.10535440  0.19829482  0.90355956     0.30700
C352        C  0.10914276  0.18764204  0.92149135    -0.35600
C353        C  0.08285417  0.15463010  0.92707156     0.16700
C354        C  0.05432918  0.13374175  0.91595684     0.22500
C355        C  0.05080772  0.14420216  0.89782173    -0.33700
C356        C  0.07758288  0.17706675  0.89206777     0.16600
O357        O  0.12662306  0.22847552  0.89576705    -0.25700
C358        C  0.11275803  0.22640397  0.87893227     0.06400
C359        C  0.08229539  0.19498442  0.87571526    -0.30600
O360        O  0.03274184  0.10396405  0.92420650    -0.22400
C361        C  0.04806637  0.10585276  0.94061460    -0.02400
C362        C  0.07936676  0.13658675  0.94312437    -0.16900
H363        H  0.13110618  0.20395047  0.93044867     0.21100
H364        H  0.02888443  0.12787462  0.88884589     0.19500
H365        H  0.06557805  0.18710595  0.86344697     0.19400
H366        H  0.09696792  0.14433943  0.95501476     0.15300
C367        C  0.30436120  0.41268677  0.90152526     0.30700
C368        C  0.31672585  0.43131269  0.91831548    -0.35600
C369        C  0.34765857  0.43433327  0.92527012     0.16700
C370        C  0.36505567  0.41959007  0.91650258     0.22500
C371        C  0.35303946  0.40151104  0.89942472    -0.33700
C372        C  0.32226682  0.39896518  0.89226917     0.16600
O373        O  0.27516321  0.40556650  0.89303923    -0.25700
C374        C  0.27463669  0.38774499  0.87791192     0.06400
C375        C  0.30332603  0.38291787  0.87655754    -0.30600
O376        O  0.39316218  0.42515808  0.92582556    -0.22400
C377        C  0.39376375  0.44398583  0.94056426    -0.02400
C378        C  0.36629813  0.45071309  0.94086698    -0.16900
H379        H  0.30300104  0.44242495  0.92553714     0.21100
H380        H  0.36659061  0.39012299  0.89229421     0.19500
H381        H  0.30852638  0.36838010  0.86605999     0.19400
H382        H  0.36098375  0.46561614  0.95107654     0.15300
C383        C  0.08237705  0.44640564  0.91847339     0.30700
C384        C  0.09986760  0.45190909  0.90122744    -0.35600
C385        C  0.10162440  0.42333704  0.89403238     0.16700
C386        C  0.08799224  0.39193327  0.90346118     0.22500
C387        C  0.07017960  0.38631269  0.92054932    -0.33700
C388        C  0.06768765  0.41453307  0.92748688     0.16600
O389        O  0.07644735  0.46898129  0.92744107    -0.25700
C390        C  0.05734195  0.45106509  0.94218114     0.06400
C391        C  0.05099325  0.41707103  0.94292367    -0.30600
O392        O  0.09409214  0.36935254  0.89470773    -0.22400
C393        C  0.11108387  0.38613903  0.87924214    -0.02400
C394        C  0.11640182  0.41977734  0.87796132    -0.16900
H395        H  0.11095777  0.47656587  0.89385058     0.21100
H396        H  0.05885629  0.36157386  0.92786049     0.19500
H397        H  0.03567777  0.39700750  0.95313425     0.19400
H398        H  0.13054296  0.43921058  0.86725338     0.15300
C399        C  0.44409683  0.21202922  0.77494629     0.30700
C400        C  0.46707841  0.20773777  0.78672541    -0.35600
C401        C  0.99993408  0.23732829  0.78934237     0.16700
C402        C  0.00935991  0.26925047  0.78132583     0.22500
C403        C  0.48643621  0.27350708  0.76943314    -0.33700
C404        C  0.45377132  0.24371862  0.76653386     0.16600
O405        O  0.41288780  0.18729551  0.76965639    -0.25700
C406        C  0.40266279  0.20329531  0.75755897     0.06400
C407        C  0.42687479  0.23843350  0.75513787    -0.30600
O408        O  0.04116296  0.29357951  0.78611291    -0.22400
C409        C  0.05237724  0.27674040  0.79701505    -0.02400
C410        C  0.02790328  0.24169812  0.79943931    -0.16900
H411        H  0.96009672  0.18287868  0.79309093     0.21100
H412        H  0.49372657  0.29815042  0.76270208     0.19500
H413        H  0.42543307  0.25684228  0.74567443     0.19400
H414        H  0.03007854  0.22253514  0.80790926     0.15300
C415        C  0.26835721  0.05666104  0.77592303     0.30700
C416        C  0.23942867  0.03296948  0.78656710    -0.35600
C417        C  0.23657531  0.50039850  0.78980367     0.16700
C418        C  0.26091049  0.49195820  0.78337145     0.22500
C419        C  0.28972316  0.01555606  0.77264448    -0.33700
C420        C  0.29229945  0.04792135  0.76917507     0.16600
O421        O  0.27476000  0.08756719  0.77004666    -0.25700
C422        C  0.30299453  0.09856295  0.75932358     0.06400
C423        C  0.31519165  0.07512282  0.75835187    -0.30600
O424        O  0.25356316  0.46034909  0.78842800    -0.22400
C425        C  0.22385883  0.44821589  0.79797381    -0.02400
C426        C  0.21196580  0.47191784  0.79920421    -0.16900
H427        H  0.22006247  0.03919846  0.79160426     0.21100
H428        H  0.30853264  0.00894913  0.76714174     0.19500
H429        H  0.33649196  0.07702041  0.74993083     0.19400
H430        H  0.18908408  0.46892730  0.80646434     0.15300
C431        C  0.29085153  0.23915786  0.76902690     0.30700
C432        C  0.29168555  0.27072261  0.77261116    -0.35600
C433        C  0.26278579  0.26822770  0.78221384     0.16700
C434        C  0.23483636  0.23682897  0.78784929     0.22500
C435        C  0.23421094  0.20524697  0.78447157    -0.33700
C436        C  0.26325431  0.20774589  0.77497095     0.16600
O437        O  0.31395469  0.23529044  0.75914238    -0.25700
C438        C  0.30124499  0.20100327  0.75896910     0.06400
C439        C  0.26992035  0.18253200  0.76869048    -0.30600
O440        O  0.21052647  0.24065063  0.79655136    -0.22400
C441        C  0.22316253  0.27497849  0.79656430    -0.02400
C442        C  0.25563114  0.29339014  0.78785384    -0.16900
H443        H  0.31313521  0.29548705  0.76795738     0.21100
H444        H  0.21241652  0.18041826  0.78876497     0.19500
H445        H  0.25343358  0.15454743  0.76985061     0.19400
H446        H  0.27185215  0.32132292  0.78620767     0.15300
C447        C  0.44186827  0.22520982  0.69536593     0.30700
C448        C  0.46133394  0.24689485  0.68031221    -0.35600
C449        C  0.99680465  0.25628556  0.67951595     0.16700
C450        C  0.01232421  0.24546045  0.69269149     0.22500
C451        C  0.49270941  0.22322015  0.70750576    -0.33700
C452        C  0.45720374  0.21358531  0.70818130     0.16600
O453        O  0.40886381  0.21492348  0.69955923    -0.25700
C454        C  0.40297797  0.19646307  0.71533293     0.06400
C455        C  0.43201287  0.19411535  0.72095443    -0.30600
O456        O  0.04600285  0.25788150  0.68937853    -0.22400
C457        C  0.05206696  0.27663390  0.67371803    -0.02400
C458        C  0.02233846  0.27637738  0.66695908    -0.16900
H459        H  0.44978728  0.25624395  0.67008236     0.21100
H460        H  0.50439469  0.21437866  0.71794160     0.19500
H461        H  0.43473124  0.18112874  0.73320075     0.19400
H462        H  0.01991665  0.28904516  0.65447838     0.15300
C463        C  0.23739052  0.48506634  0.69551038     0.30700
C464        C  0.23496551  0.00457027  0.71040324    -0.35600
C465        C  0.26036100  0.04014696  0.71079319     0.16700
C466        C  0.28681187  0.05560872  0.69769366     0.22500
C467        C  0.28903839  0.03618224  0.68266254    -0.33700
C468        C  0.26334374  0.50068878  0.68212128     0.16600
O469        O  0.21575632  0.45162397  0.69202376    -0.25700
C470        C  0.22785538  0.44584381  0.67606123     0.06400
C471        C  0.25735572  0.47547949  0.66930741    -0.30600
O472        O  0.30863485  0.08896123  0.70135058    -0.22400
C473        C  0.29597888  0.09496411  0.71705491    -0.02400
C474        C  0.26543559  0.06559215  0.72318311    -0.16900
H475        H  0.21453099  0.49291709  0.72091305     0.21100
H476        H  0.30934384  0.04791174  0.67210668     0.19500
H477        H  0.27176145  0.47820859  0.65648835     0.19400
H478        H  0.24954062  0.06296927  0.73532108     0.15300
C479        C  0.25436098  0.25278283  0.68047087     0.30700
C480        C  0.27694562  0.23913127  0.67851938    -0.35600
C481        C  0.28232990  0.22426453  0.69473970     0.16700
C482        C  0.26648272  0.22298678  0.71164904     0.22500
C483        C  0.24409828  0.23682827  0.71366588    -0.33700
C484        C  0.23879191  0.25178953  0.69746540     0.16600
O485        O  0.24535601  0.26735623  0.66705249    -0.25700
C486        C  0.22391003  0.27614889  0.67549442     0.06400
C487        C  0.21891494  0.26716918  0.69450436    -0.30600
O488        O  0.27532692  0.20829706  0.72501658    -0.22400
C489        C  0.29740245  0.20009767  0.71678650    -0.02400
C490        C  0.30257856  0.20929909  0.69780624    -0.16900
H491        H  0.28941406  0.24002693  0.66525891     0.21100
H492        H  0.23178604  0.23605421  0.72696902     0.19500
H493        H  0.20262706  0.27087396  0.70454050     0.19400
H494        H  0.31938182  0.20625385  0.68784628     0.15300
C495        C  0.10966637  0.18891305  0.57209852     0.30700
C496        C  0.11573926  0.16543085  0.56178675    -0.35600
C497        C  0.08903653  0.14334172  0.54945064     0.16700
C498        C  0.05837710  0.14413625  0.54745934     0.22500
C499        C  0.05228497  0.16755692  0.55779980    -0.33700
C500        C  0.07901948  0.18971853  0.57007753     0.16600
O501        O  0.13128472  0.21233679  0.58419496    -0.25700
C502        C  0.11417813  0.22824235  0.59003721     0.06400
C503        C  0.08155484  0.21526957  0.58170680    -0.30600
O504        O  0.03695913  0.12113746  0.53513333    -0.22400
C505        C  0.05420691  0.10554036  0.52905272    -0.02400
C506        C  0.08672793  0.11825832  0.53750662    -0.16900
H507        H  0.13970162  0.16459727  0.56318977     0.21100
H508        H  0.02841612  0.16854171  0.55631281     0.19500
H509        H  0.06268296  0.22377610  0.58374753     0.19400
H510        H  0.10573922  0.10999009  0.53527739     0.15300
C511        C  0.35708841  0.44073426  0.54668164     0.30700
C512        C  0.33614244  0.44824277  0.55834734    -0.35600
C513        C  0.31379053  0.42152521  0.57055946     0.16700
C514        C  0.31208796  0.38955109  0.57127809     0.22500
C515        C  0.33313379  0.38205040  0.55962154    -0.33700
C516        C  0.35547431  0.40879428  0.54735718     0.16600
O517        O  0.38031492  0.46220053  0.53447852    -0.25700
C518        C  0.39372774  0.44379102  0.52718455     0.06400
C519        C  0.37922219  0.41032228  0.53462287    -0.30600
O520        O  0.28856254  0.36810080  0.58341594    -0.22400
C521        C  0.27512086  0.38665467  0.59054539    -0.02400
C522        C  0.28991682  0.42010489  0.58310961    -0.16900
H523        H  0.33717577  0.47318934  0.55791415     0.21100
H524        H  0.33204744  0.35707867  0.56002301     0.19500
H525        H  0.38590674  0.39043657  0.53147701     0.19400
H526        H  0.28333561  0.44010303  0.58614588     0.15300
C527        C  0.08328606  0.39305746  0.57124313     0.30700
C528        C  0.05624724  0.38439693  0.55829942    -0.35600
C529        C  0.05968376  0.41157493  0.54673820     0.16700
C530        C  0.08774963  0.44501762  0.54786259     0.22500
C531        C  0.11475725  0.45370877  0.56085649    -0.33700
C532        C  0.11136990  0.42648679  0.57240007     0.16600
O533        O  0.08600093  0.37138031  0.58288315    -0.25700
C534        C  0.11623343  0.39109387  0.59160652     0.06400
C535        C  0.13312740  0.42568739  0.58572300    -0.30600
O536        O  0.08527826  0.46649617  0.53593917    -0.22400
C537        C  0.05524421  0.44655108  0.52708157    -0.02400
C538        C  0.03822004  0.41210914  0.53318880    -0.16900
H539        H  0.03418199  0.35822164  0.55723331     0.21100
H540        H  0.13692890  0.47983246  0.56183724     0.19500
H541        H  0.15827719  0.44679679  0.59013800     0.19400
H542        H  0.01324329  0.39085085  0.52866306     0.15300
Zn543      Zn  0.12064383  0.81169896  0.62509182     1.49700
Zn544      Zn  0.16636859  0.83250835  0.66337550     1.49400
Zn545      Zn  0.19186552  0.80975054  0.62572655     1.49100
Zn546      Zn  0.19286526  0.88204499  0.62599794     1.49500
O547        O  0.16797134  0.83396565  0.63537827    -1.83200
O548        O  0.08493246  0.79463449  0.64570729    -0.73800
O549        O  0.19137976  0.80643376  0.67332665    -0.73600
O550        O  0.16015696  0.76887575  0.60928736    -0.73100
O551        O  0.11475494  0.80605312  0.67251801    -0.73800
O552        O  0.11116299  0.77127518  0.60837486    -0.73400
O553        O  0.20912854  0.79261857  0.64700833    -0.74000
O554        O  0.23288378  0.89070950  0.60913515    -0.73400
O555        O  0.19190578  0.88346741  0.67362893    -0.74100
O556        O  0.23322376  0.84076267  0.60939142    -0.73500
O557        O  0.21256252  0.91518475  0.64747100    -0.74000
O558        O  0.16206396  0.89450920  0.61058093    -0.73900
O559        O  0.11239734  0.84413978  0.60906564    -0.73700
C560        C  0.08581503  0.79340848  0.66357706     0.78100
C561        C  0.20711381  0.79263665  0.66487223     0.78600
C562        C  0.12918381  0.75749555  0.60336041     0.77600
C563        C  0.24574065  0.87205009  0.60383586     0.77900
C564        C  0.20975066  0.91291173  0.66530064     0.79100
C565        C  0.13094720  0.87604730  0.60460718     0.78100
C566        C  0.33294693  0.66504252  0.71861154     0.46400
H567        H  0.33218627  0.66420022  0.70299894    -0.02600
C568        C  0.33459555  0.66632615  0.75539314     0.46500
H569        H  0.33545100  0.66696650  0.77103582    -0.02600
C570        C  0.31436207  0.62837911  0.72783424    -0.16300
C571        C  0.37037611  0.68318795  0.72685214    -0.16000
C572        C  0.31507120  0.68425339  0.72757790    -0.16400
C573        C  0.31599854  0.62957965  0.74718190    -0.16400
C574        C  0.37070603  0.68437593  0.74620653    -0.16000
C575        C  0.31602433  0.68440013  0.74694615    -0.16300
Zn576      Zn  0.16648868  0.83378664  0.86258238     1.49700
Zn577      Zn  0.14178578  0.78473712  0.82665567     1.49400
Zn578      Zn  0.14218028  0.85806221  0.82681534     1.49100
Zn579      Zn  0.21437925  0.85634443  0.82599490     1.49500
O580        O  0.16616559  0.83322983  0.83526854    -1.83200
O581        O  0.14530094  0.78616277  0.87314089    -0.73800
O582        O  0.09968374  0.77562848  0.81157314    -0.73600
O583        O  0.12557487  0.87569569  0.84866764    -0.73100
O584        O  0.12294516  0.75118084  0.84844261    -0.73800
O585        O  0.13974692  0.85477769  0.87342665    -0.73400
O586        O  0.10000822  0.82616795  0.81093512    -0.74000
O587        O  0.22489370  0.89964523  0.81115281    -0.73400
O588        O  0.17425843  0.77308420  0.81183165    -0.74100
O589        O  0.17514433  0.90088485  0.81234812    -0.73500
O590        O  0.22357805  0.82404688  0.81010139    -0.74000
O591        O  0.24878698  0.87131970  0.84766554    -0.73900
O592        O  0.21460177  0.86048917  0.87266830    -0.73700
C593        C  0.12770909  0.75598476  0.86607637     0.78100
C594        C  0.08608000  0.79394854  0.80676664     0.78600
C595        C  0.12608735  0.87143832  0.86635197     0.77600
C596        C  0.20698284  0.91425898  0.80746220     0.77900
C597        C  0.20588832  0.79159746  0.80646553     0.79100
C598        C  0.24458029  0.87236457  0.86533057     0.78100
Zn599      Zn  0.28472107  0.64289680  0.32411330     1.49700
Zn600      Zn  0.35757794  0.64177387  0.32425030     1.49400
Zn601      Zn  0.35849906  0.71557332  0.32417708     1.49100
Zn602      Zn  0.33362707  0.66675702  0.35982042     1.49500
O603        O  0.33359276  0.66672054  0.33266324    -1.83200
O604        O  0.27383991  0.59909201  0.30951956    -0.73800
O605        O  0.40127020  0.67469008  0.30964498    -0.73600
O606        O  0.32588778  0.72620709  0.30937936    -0.73100
O607        O  0.32481703  0.60025159  0.30812893    -0.73800
O608        O  0.27568811  0.67582075  0.30822014    -0.73400
O609        O  0.39954995  0.72412104  0.30786660    -0.74000
O610        O  0.35928626  0.71357405  0.37038652    -0.73400
O611        O  0.37265473  0.62274020  0.34637020    -0.74100
O612        O  0.37748570  0.75005700  0.34620050    -0.73500
O613        O  0.35464824  0.64090503  0.37072525    -0.74000
O614        O  0.28673511  0.64603354  0.37054988    -0.73900
O615        O  0.25072386  0.62795258  0.34614228    -0.73700
C616        C  0.29234983  0.58589953  0.30424484     0.78100
C617        C  0.41404920  0.70613222  0.30410235     0.78600
C618        C  0.29412605  0.70814086  0.30422191     0.77600
C619        C  0.37511694  0.74423235  0.36385887     0.77900
C620        C  0.36920252  0.62488062  0.36404984     0.79100
C621        C  0.25623254  0.63149483  0.36380927     0.78100
C622        C  0.16649319  0.83341246  0.21520120     0.46400
H623        H  0.16650940  0.83345167  0.19955973    -0.02600
C624        C  0.16651781  0.83335858  0.25202400     0.46500
H625        H  0.16654076  0.83334878  0.26766455    -0.02600
C626        C  0.12980241  0.81449885  0.22399449    -0.16300
C627        C  0.18569841  0.81593946  0.22394760    -0.16000
C628        C  0.18415174  0.86994452  0.22396729    -0.16400
C629        C  0.12990597  0.81437995  0.24328345    -0.16400
C630        C  0.18573102  0.81592482  0.24322359    -0.16000
C631        C  0.18393151  0.86999637  0.24325243    -0.16300
Zn632      Zn  0.35757603  0.71513456  0.14297539     1.49700
Zn633      Zn  0.28400659  0.64224276  0.14396525     1.49400
Zn634      Zn  0.33139695  0.66479969  0.10798472     1.49100
Zn635      Zn  0.35742289  0.64231302  0.14386008     1.49500
O636        O  0.33257394  0.66612862  0.13507751    -1.83200
O637        O  0.32598189  0.72536084  0.15914969    -0.73800
O638        O  0.24873412  0.62339391  0.12244181    -0.73600
O639        O  0.35272265  0.71132079  0.09670016    -0.73100
O640        O  0.27462060  0.67605672  0.15841611    -0.73800
O641        O  0.37278821  0.74831086  0.12061618    -0.73400
O642        O  0.28405027  0.63928704  0.09774931    -0.74000
O643        O  0.37822208  0.62879623  0.12207042    -0.73400
O644        O  0.27503702  0.60069081  0.15996580    -0.74100
O645        O  0.35692439  0.64316503  0.09756481    -0.73500
O646        O  0.32386697  0.59783247  0.15747285    -0.74000
O647        O  0.39783646  0.67417572  0.16082753    -0.73900
O648        O  0.40125800  0.72582573  0.15733424    -0.73700
C649        C  0.29362907  0.70779567  0.16331552     0.78100
C650        C  0.25369707  0.62462228  0.10473621     0.78600
C651        C  0.36842359  0.74211491  0.10303816     0.77600
C652        C  0.37472431  0.63062299  0.10438647     0.77900
C653        C  0.29248113  0.58534615  0.16310527     0.79100
C654        C  0.41321308  0.70696767  0.16372010     0.78100
Zn655      Zn  0.99923916  0.50070679  0.01165531     1.49700
Zn656      Zn  0.47284760  0.52228888  0.97589621     1.49400
Zn657      Zn  0.04763145  0.52692688  0.97614548     1.49100
Zn658      Zn  0.47714751  0.95194063  0.97633547     1.49500
O659        O  0.99919449  0.50039572  0.98471508    -1.83200
O660        O  0.47776743  0.52651129  0.02196274    -0.73800
O661        O  0.00188939  0.56077789  0.95764077    -0.73600
O662        O  0.08234305  0.54260368  0.99775362    -0.73100
O663        O  0.45773332  0.54220446  0.99739138    -0.73800
O664        O  0.04627084  0.52247261  0.02215386    -0.73400
O665        O  0.05539093  0.56860656  0.96126746    -0.74000
O666        O  0.01179351  0.94426955  0.96206074    -0.73400
O667        O  0.43105156  0.98825896  0.96130727    -0.74100
O668        O  0.05781474  0.99749247  0.95861716    -0.73500
O669        O  0.43830673  0.94221247  0.95805081    -0.74000
O670        O  0.45808263  0.91735231  0.99821324    -0.73900
O671        O  0.47457613  0.95380788  0.02239704    -0.73700
C672        C  0.46231550  0.54149950  0.01505764     0.78100
C673        C  0.03437936  0.57705036  0.95397930     0.78600
C674        C  0.07679861  0.53819412  0.01540312     0.77600
C675        C  0.04167885  0.96499048  0.95512163     0.77900
C676        C  0.42232413  0.95868466  0.95416937     0.79100
C677        C  0.45987582  0.92315468  0.01585952     0.78100
Zn678      Zn  0.04957582  0.52446805  0.49257792     1.49700
Zn679      Zn  0.47722061  0.95104987  0.49173619     1.49400
Zn680      Zn  0.47624757  0.52407371  0.49300948     1.49100
Zn681      Zn  0.00089674  0.00136056  0.45678522     1.49500
O682        O  0.00090868  0.00024565  0.48386359    -1.83200
O683        O  0.05897943  0.99248106  0.50851317    -0.73800
O684        O  0.43573836  0.94060760  0.50794466    -0.73600
O685        O  0.00798169  0.56467111  0.50988113    -0.73100
O686        O  0.00914699  0.94183896  0.50795807    -0.73800
O687        O  0.05816713  0.56430711  0.50959152    -0.73400
O688        O  0.43555354  0.99082412  0.50908895    -0.74000
O689        O  0.47516510  0.52329172  0.44673501    -0.73400
O690        O  0.46114350  0.91735165  0.46953999    -0.74100
O691        O  0.45760270  0.54110887  0.47147053    -0.73500
O692        O  0.47911547  0.95461014  0.44566956    -0.74000
O693        O  0.04831380  0.52684825  0.44628904    -0.73900
O694        O  0.08420627  0.54288149  0.47078151    -0.73700
C695        C  0.04043677  0.96083439  0.51360267     0.78100
C696        C  0.42295170  0.95904002  0.51385934     0.78600
C697        C  0.03940815  0.57683414  0.51535083     0.77600
C698        C  0.45943294  0.53795223  0.45372301     0.77900
C699        C  0.46438997  0.92373050  0.45194200     0.79100
C700        C  0.07882422  0.54155378  0.45309880     0.78100
C701        C  0.13045586  0.56260827  0.05484126     0.30700
C702        C  0.13785440  0.56587665  0.07416515    -0.35600
C703        C  0.17327485  0.58365363  0.07893012     0.16700
C704        C  0.19938088  0.59708270  0.06552499     0.22500
C705        C  0.19197835  0.59383005  0.04622648    -0.33700
C706        C  0.15661562  0.57615331  0.04146940     0.16600
O707        O  0.09924073  0.54740995  0.04727634    -0.25700
C708        C  0.10546528  0.55131051  0.02886523     0.06400
C709        C  0.14070690  0.56896990  0.02434229    -0.30600
O710        O  0.23063586  0.61284749  0.07301210    -0.22400
C711        C  0.22464054  0.60959265  0.09143959    -0.02400
C712        C  0.18938120  0.59166557  0.09604898    -0.16900
H713        H  0.11744445  0.55546664  0.08470325     0.21100
H714        H  0.21237878  0.60449626  0.03568755     0.19500
H715        H  0.15272020  0.57570618  0.01055730     0.19400
H716        H  0.17749115  0.58560995  0.10987230     0.15300
C717        C  0.41876689  0.84482104  0.04110044     0.30700
C718        C  0.39906958  0.80877902  0.04390979    -0.35600
C719        C  0.39419925  0.79768113  0.06269359     0.16700
C720        C  0.40770949  0.82031409  0.07773979     0.22500
C721        C  0.42733627  0.85634914  0.07493783    -0.33700
C722        C  0.43217446  0.86743794  0.05615894     0.16600
O723        O  0.42667452  0.86107685  0.02472203    -0.25700
C724        C  0.44524053  0.89448834  0.02945567     0.06400
C725        C  0.44951385  0.89992030  0.04878605    -0.30600
O726        O  0.40029941  0.80406144  0.09409952    -0.22400
C727        C  0.38181244  0.77063816  0.08938570    -0.02400
C728        C  0.37717812  0.76516549  0.07007473    -0.16900
H729        H  0.38839410  0.79066127  0.03229041     0.21100
H730        H  0.43817152  0.87445538  0.08655460     0.19500
H731        H  0.46342792  0.92436504  0.05630812     0.19400
H732        H  0.36354881  0.74068203  0.06256745     0.15300
C733        C  0.44105676  0.57441746  0.05416095     0.30700
C734        C  0.43995639  0.58085255  0.07339179    -0.35600
C735        C  0.42013974  0.59633215  0.07823941     0.16700
C736        C  0.40288189  0.60497975  0.06499429     0.22500
C737        C  0.40418406  0.59876940  0.04576685    -0.33700
C738        C  0.42385137  0.58315753  0.04093105     0.16600
O739        O  0.45694764  0.55905396  0.04662274    -0.25700
C740        C  0.44993189  0.55800346  0.02836190     0.06400
C741        C  0.42949253  0.57269559  0.02390807    -0.30600
O742        O  0.38513944  0.61830929  0.07260554    -0.22400
C743        C  0.39095013  0.61814599  0.09094316    -0.02400
C744        C  0.41265439  0.60485891  0.09537186    -0.16900
H745        H  0.45309836  0.57372639  0.08383084     0.21100
H746        H  0.39036843  0.60514572  0.03537393     0.19500
H747        H  0.41970413  0.57467865  0.01027880     0.19400
H748        H  0.42119224  0.60157421  0.10910689     0.15300
C749        C  0.04620810  0.76047516  0.20551794     0.30700
C750        C  0.01330695  0.73033187  0.20436673    -0.35600
C751        C  0.48957954  0.73176443  0.19184473     0.16700
C752        C  0.49742230  0.76111403  0.18143356     0.22500
C753        C  0.03053671  0.79120364  0.18243437    -0.33700
C754        C  0.05456438  0.78951995  0.19469889     0.16600
O755        O  0.07184415  0.76507122  0.21674486    -0.25700
C756        C  0.09724766  0.79725255  0.21287835     0.06400
C757        C  0.08814174  0.81371473  0.19917420    -0.30600
O758        O  0.47120832  0.75664857  0.17064931    -0.22400
C759        C  0.44647281  0.72387886  0.17402261    -0.02400
C760        C  0.45649207  0.70709792  0.18704642    -0.16900
H761        H  0.00667868  0.70733392  0.21267358     0.21100
H762        H  0.03713096  0.81425135  0.17418209     0.19500
H763        H  0.10339611  0.84017141  0.19402097     0.19400
H764        H  0.44167170  0.68050859  0.19206747     0.15300
C765        C  0.21149037  0.95171054  0.20391416     0.30700
C766        C  0.21223323  0.98346359  0.20146112    -0.35600
C767        C  0.23858348  0.50769871  0.18966972     0.16700
C768        C  0.26305891  0.50149829  0.18118236     0.22500
C769        C  0.26192585  0.96941952  0.18337637    -0.33700
C770        C  0.23511922  0.94486016  0.19491569     0.16600
O771        O  0.18994718  0.92599190  0.21492487    -0.25700
C772        C  0.19943591  0.90208647  0.21268822     0.06400
C773        C  0.22722082  0.91217272  0.20033255    -0.30600
O774        O  0.28584461  0.52828196  0.17108303    -0.22400
C775        C  0.27552065  0.55170316  0.17299730    -0.02400
C776        C  0.24616473  0.54023193  0.18432575    -0.16900
H777        H  0.19367705  0.98896424  0.20836984     0.21100
H778        H  0.28074183  0.96406908  0.17665758     0.19500
H779        H  0.24061794  0.89814196  0.19665805     0.19400
H780        H  0.23241708  0.55389789  0.18803820     0.15300
C781        C  0.24096250  0.78885900  0.20430852     0.30700
C782        C  0.27187913  0.78758243  0.20227754    -0.35600
C783        C  0.27010696  0.76162333  0.19027779     0.16700
C784        C  0.23981962  0.73815636  0.18116190     0.22500
C785        C  0.20906854  0.73985683  0.18292291    -0.33700
C786        C  0.21099680  0.76620681  0.19466925     0.16600
O787        O  0.23631389  0.80992898  0.21548021    -0.25700
C788        C  0.20315481  0.80109941  0.21269627     0.06400
C789        C  0.18613321  0.77426841  0.19979587    -0.30600
O790        O  0.24386363  0.71556931  0.17094506    -0.22400
C791        C  0.27727848  0.72497249  0.17334224    -0.02400
C792        C  0.29496907  0.75359611  0.18514411    -0.16900
H793        H  0.29557018  0.80538460  0.20968184     0.21100
H794        H  0.18524099  0.72175188  0.17572516     0.19500
H795        H  0.15898096  0.76144320  0.19561575     0.19400
H796        H  0.32214455  0.76655550  0.18928854     0.15300
C797        C  0.23868280  0.95153957  0.26368539     0.30700
C798        C  0.27030456  0.98229968  0.26708480    -0.35600
C799        C  0.26814571  0.50780577  0.27774803     0.16700
C800        C  0.23700022  0.50335978  0.28465956     0.22500
C801        C  0.20532305  0.97247270  0.28132534    -0.33700
C802        C  0.20752699  0.94676335  0.27080466     0.16600
O803        O  0.23463883  0.92487114  0.25352944    -0.25700
C804        C  0.20055882  0.90238485  0.25444151     0.06400
C805        C  0.18231211  0.91449032  0.26501014    -0.30600
O806        O  0.24117840  0.53055168  0.29444377    -0.22400
C807        C  0.27549437  0.55254734  0.29393186    -0.02400
C808        C  0.29355008  0.53967581  0.28377982    -0.16900
H809        H  0.29489829  0.98615637  0.26169084     0.21100
H810        H  0.18071042  0.96865477  0.28666252     0.19500
H811        H  0.15443348  0.90194548  0.26735783     0.19400
H812        H  0.32139237  0.55190986  0.28136959     0.15300
C813        C  0.49782521  0.73572879  0.28581165     0.30700
C814        C  0.03040798  0.73767171  0.28415546    -0.35600
C815        C  0.05482767  0.76415548  0.27243902     0.16700
C816        C  0.04739576  0.78670503  0.26274006     0.22500
C817        C  0.01504664  0.78511593  0.26460971    -0.33700
C818        C  0.49086736  0.75902350  0.27656764     0.16600
O819        O  0.47131093  0.71328431  0.29618093    -0.25700
C820        C  0.44724629  0.72261664  0.29373037     0.06400
C821        C  0.45800689  0.75098589  0.28171596    -0.30600
O822        O  0.07318401  0.80802230  0.25167313    -0.22400
C823        C  0.09766517  0.79943465  0.25456981    -0.02400
C824        C  0.08789938  0.77251629  0.26743894    -0.16900
H825        H  0.03627274  0.71974909  0.29145886     0.21100
H826        H  0.00908675  0.80285212  0.25717308     0.19500
H827        H  0.44380757  0.76397771  0.27757641     0.19400
H828        H  0.10233933  0.75981665  0.27165675     0.15300
C829        C  0.23937391  0.79146948  0.26732972     0.30700
C830        C  0.27060242  0.79586123  0.27495799    -0.35600
C831        C  0.26961540  0.76556320  0.28167418     0.16700
C832        C  0.23995675  0.73313742  0.28095813     0.22500
C833        C  0.20876162  0.72871244  0.27324070    -0.33700
C834        C  0.20972521  0.75901910  0.26654699     0.16800
O835        O  0.23462026  0.81611095  0.25988944    -0.25700
C836        C  0.20143232  0.79923238  0.25443081     0.06400
C837        C  0.18469133  0.76367979  0.25809416    -0.30600
O838        O  0.24473407  0.70850843  0.28841496    -0.22400
C839        C  0.27794636  0.72534684  0.29391247    -0.02400
C840        C  0.29470705  0.76090759  0.29004066    -0.16900
H841        H  0.29404273  0.82113354  0.27559815     0.21100
H842        H  0.18535056  0.70342221  0.27254576     0.19500
H843        H  0.15827332  0.74408265  0.25449845     0.19400
H844        H  0.32127346  0.78056351  0.29331764     0.15300
C845        C  0.20219759  0.60568919  0.40321429     0.30700
C846        C  0.19459802  0.60087092  0.42250626    -0.35600
C847        C  0.15914343  0.58315102  0.42720919     0.16700
C848        C  0.13312312  0.57115456  0.41379554     0.22500
C849        C  0.14072669  0.57600786  0.39451136    -0.33700
C850        C  0.17616307  0.59365497  0.38980816     0.16600
O851        O  0.23349451  0.62085396  0.39570006    -0.25700
C852        C  0.22747468  0.61846464  0.37727417     0.06400
C853        C  0.19227242  0.60187160  0.37270652    -0.30600
O854        O  0.10179605  0.55514053  0.42127119    -0.22400
C855        C  0.10773912  0.55688104  0.43969039    -0.02400
C856        C  0.14296074  0.57397809  0.44428795    -0.16900
H857        H  0.21489958  0.61005765  0.43307272     0.21100
H858        H  0.12042484  0.56647024  0.38393601     0.19500
H859        H  0.18039474  0.59625782  0.35889271     0.19400
H860        H  0.15479091  0.57882790  0.45809978     0.15300
C861        C  0.41508531  0.82228572  0.38941125     0.30700
C862        C  0.43282395  0.85833162  0.39240367    -0.35600
C863        C  0.43824263  0.86899373  0.41126582     0.16700
C864        C  0.42704170  0.84597008  0.42622730     0.22500
C865        C  0.40933232  0.80994207  0.42324000    -0.33700
C866        C  0.40395353  0.79929305  0.40438533     0.16600
O867        O  0.40683613  0.80636112  0.37293927    -0.25700
C868        C  0.39027758  0.77277710  0.37753153     0.06400
C869        C  0.38777052  0.76694042  0.39686280    -0.30600
O870        O  0.43471577  0.86183576  0.44270065    -0.22400
C871        C  0.45103568  0.89542494  0.43814286    -0.02400
C872        C  0.45397741  0.90135136  0.41882075    -0.16900
H873        H  0.44166143  0.87676450  0.38086708     0.21100
H874        H  0.40027065  0.79150698  0.43477864     0.19500
H875        H  0.37548350  0.74229890  0.40430031     0.19400
H876        H  0.46585178  0.92602411  0.41142104     0.15300
C877        C  0.42874445  0.56164018  0.41442129     0.30700
C878        C  0.42436542  0.56470339  0.39510478    -0.35600
C879        C  0.40663132  0.58237767  0.39030232     0.16700
C880        C  0.39396986  0.59589191  0.40364806     0.22500
C881        C  0.39815141  0.59263064  0.42298915    -0.33700
C882        C  0.41607223  0.57509450  0.42779627     0.16600
O883        O  0.44532216  0.54693437  0.42193962    -0.25700
C884        C  0.44335192  0.55095526  0.44036772     0.06400
C885        C  0.42535974  0.56826066  0.44492412    -0.30600
O886        O  0.37900576  0.61217404  0.39604025    -0.22400
C887        C  0.38212150  0.60910070  0.37760949    -0.02400
C888        C  0.39904153  0.59073455  0.37314559    -0.16900
H889        H  0.43452913  0.55446068  0.38457598     0.21100
H890        H  0.38855862  0.60344525  0.43350876     0.19500
H891        H  0.42023942  0.57505978  0.45872075     0.19400
H892        H  0.40524661  0.58489995  0.35936737     0.15300
C893        C  0.10533080  0.69833078  0.90358278     0.30700
C894        C  0.10907921  0.68769547  0.92152699    -0.35600
C895        C  0.08281426  0.65466091  0.92709126     0.16700
C896        C  0.05434715  0.63373329  0.91594929     0.22500
C897        C  0.05086655  0.64417741  0.89780258    -0.33700
C898        C  0.07761866  0.67706661  0.89206580     0.16600
O899        O  0.12658539  0.72852609  0.89580020    -0.25700
C900        C  0.11277055  0.72642916  0.87894776     0.06400
C901        C  0.08235619  0.69497766  0.87570885    -0.30600
O902        O  0.03277403  0.60393744  0.92418682    -0.22400
C903        C  0.04805093  0.60585626  0.94061501    -0.02400
C904        C  0.07930469  0.63662662  0.94315024    -0.16900
H905        H  0.13099669  0.70403272  0.93050487     0.21100
H906        H  0.02899022  0.62782044  0.88880591     0.19500
H907        H  0.06568378  0.68707202  0.86342215     0.19400
H908        H  0.09686360  0.64440714  0.95506034     0.15300
C909        C  0.30433197  0.91268871  0.90154562     0.30700
C910        C  0.31668845  0.93130154  0.91834064    -0.35600
C911        C  0.34761553  0.93431207  0.92529848     0.16700
C912        C  0.36501123  0.91956793  0.91653024     0.22500
C913        C  0.35300062  0.90149823  0.89944995    -0.33700
C914        C  0.32223760  0.89896652  0.89229024     0.16600
O915        O  0.27514444  0.90558472  0.89305261    -0.25700
C916        C  0.27462674  0.88777410  0.87792189     0.06400
C917        C  0.30331019  0.88293749  0.87657243    -0.30600
O918        O  0.39311998  0.92513785  0.92585073    -0.22400
C919        C  0.39372666  0.94396917  0.94058842    -0.02400
C920        C  0.36625963  0.95069473  0.94089413    -0.16900
H921        H  0.30296587  0.94241740  0.92556118     0.21100
H922        H  0.36655338  0.89011286  0.89231844     0.19500
H923        H  0.30851338  0.86840244  0.86607446     0.19400
H924        H  0.36095160  0.96560438  0.95110233     0.15300
C925        C  0.08236379  0.94639548  0.91848424     0.30700
C926        C  0.09985963  0.95190759  0.90123971    -0.35600
C927        C  0.10162446  0.92334142  0.89404329     0.16700
C928        C  0.08799674  0.89193622  0.90347028     0.22500
C929        C  0.07018104  0.88630770  0.92055785    -0.33700
C930        C  0.06767842  0.91452141  0.92749603     0.16600
O931        O  0.07642335  0.96896368  0.92745121    -0.25700
C932        C  0.05731434  0.95104140  0.94218865     0.06400
C933        C  0.05097380  0.91705017  0.94293088    -0.30600
O934        O  0.09409748  0.86935945  0.89471377    -0.22400
C935        C  0.11108408  0.88614961  0.87924804    -0.02400
C936        C  0.11640044  0.91978737  0.87797035    -0.16900
H937        H  0.11094452  0.97656507  0.89386404     0.21100
H938        H  0.05885995  0.86156696  0.92786683     0.19500
H939        H  0.03565879  0.89698355  0.95314006     0.19400
H940        H  0.13053701  0.93922253  0.86726259     0.15300
C941        C  0.44408460  0.71204934  0.77495097     0.30700
C942        C  0.46705109  0.70776607  0.78674698    -0.35600
C943        C  0.99991656  0.73734874  0.78935440     0.16700
C944        C  0.00936646  0.76925762  0.78131282     0.22500
C945        C  0.48645813  0.77350571  0.76940276    -0.33700
C946        C  0.45378256  0.74372405  0.76651383     0.16600
O947        O  0.41286693  0.68731871  0.76966980    -0.25700
C948        C  0.40265892  0.70330444  0.75755285     0.06400
C949        C  0.42689184  0.73843206  0.75511085    -0.30600
O950        O  0.04117461  0.79358283  0.78609569    -0.22400
C951        C  0.05236746  0.77675336  0.79702075    -0.02400
C952        C  0.02787466  0.74172192  0.79946373    -0.16900
H953        H  0.96005034  0.68291796  0.79313307     0.21100
H954        H  0.49376630  0.79813757  0.76265277     0.19500
H955        H  0.42546526  0.75682871  0.74563135     0.19400
H956        H  0.03003126  0.72256892  0.80795296     0.15300
C957        C  0.26829829  0.55664011  0.77590369     0.30700
C958        C  0.23935612  0.53292843  0.78653278    -0.35600
C959        C  0.23662423  0.00042758  0.78982996     0.16700
C960        C  0.26092719  0.99195880  0.78337769     0.22500
C961        C  0.28971799  0.51557406  0.77265128    -0.33700
C962        C  0.29227259  0.54792821  0.76917497     0.16600
O963        O  0.27469313  0.58754435  0.77002770    -0.25700
C964        C  0.30295658  0.59856782  0.75932497     0.06400
C965        C  0.31517678  0.57514549  0.75836451    -0.30600
O966        O  0.25355857  0.96033997  0.78842619    -0.22400
C967        C  0.22387225  0.94822945  0.79798656    -0.02400
C968        C  0.21201261  0.97195579  0.79923535    -0.16900
H969        H  0.21996651  0.53913599  0.79155574     0.21100
H970        H  0.30855533  0.50899067  0.76716532     0.19500
H971        H  0.33650416  0.57706626  0.74995949     0.19400
H972        H  0.18915057  0.96898510  0.80650898     0.15300
C973        C  0.29083840  0.73917452  0.76903336     0.30700
C974        C  0.29166031  0.77073483  0.77261229    -0.35600
C975        C  0.26276243  0.76823456  0.78221934     0.16700
C976        C  0.23482570  0.73683502  0.78786455     0.22500
C977        C  0.23421319  0.70525743  0.78449285    -0.33700
C978        C  0.26325475  0.70776179  0.77498715     0.16600
O979        O  0.31393918  0.73531104  0.75914407    -0.25700
C980        C  0.30124191  0.70102573  0.75897706     0.06400
C981        C  0.26992830  0.68255206  0.76870808    -0.30600
O982        O  0.21051493  0.74065234  0.79656897    -0.22400
C983        C  0.22313864  0.77497836  0.79657336    -0.02400
C984        C  0.25559897  0.79339259  0.78785507    -0.16900
H985        H  0.31309893  0.79549976  0.76795064     0.21100
H986        H  0.21242875  0.68042770  0.78879358     0.19500
H987        H  0.25345130  0.65456716  0.76987470     0.19400
H988        H  0.27180980  0.82132497  0.78620148     0.15300
C989        C  0.44183824  0.72520495  0.69536349     0.30700
C990        C  0.46130976  0.74690958  0.68031724    -0.35600
C991        C  0.99677929  0.75629687  0.67951988     0.16700
C992        C  0.01229176  0.74544817  0.69268685     0.22500
C993        C  0.49267058  0.72318721  0.70749304    -0.33700
C994        C  0.45716639  0.71355764  0.70817037     0.16600
O995        O  0.40883721  0.71492663  0.69956026    -0.25700
C996        C  0.40294644  0.69644894  0.71532761     0.06400
C997        C  0.43197358  0.69408120  0.72094152    -0.30600
O998        O  0.04597056  0.75786918  0.68937422    -0.22400
C999        C  0.05204228  0.77664677  0.67372288    -0.02400
C1000       C  0.02231820  0.77640586  0.66696939    -0.16900
H1001       H  0.44976903  0.75627817  0.67009489     0.21100
H1002       H  0.50435084  0.71432895  0.71792271     0.19500
H1003       H  0.43468770  0.68108494  0.73318487     0.19400
H1004       H  0.01990163  0.78909170  0.65449505     0.15300
C1005       C  0.23741347  0.98505257  0.69550780     0.30700
C1006       C  0.23492266  0.50458789  0.71039784    -0.35600
C1007       C  0.26032258  0.54016344  0.71079197     0.16700
C1008       C  0.28679165  0.55562027  0.69770207     0.22500
C1009       C  0.28903725  0.53619063  0.68267884    -0.33700
C1010       C  0.26334550  0.00067924  0.68210784     0.16600
O1011       O  0.21577310  0.95161155  0.69202176    -0.25700
C1012       C  0.22784474  0.94583625  0.67604808     0.06400
C1013       C  0.25733515  0.97547355  0.66928685    -0.30600
O1014       O  0.30861689  0.58897027  0.70136197    -0.22400
C1015       C  0.29594561  0.59497729  0.71705881    -0.02400
C1016       C  0.26539080  0.56561024  0.72317994    -0.16900
H1017       H  0.21458824  0.99289674  0.72092605     0.21100
H1018       H  0.30936018  0.54791625  0.67213202     0.19500
H1019       H  0.27171954  0.97820609  0.65645897     0.19400
H1020       H  0.24948601  0.56299147  0.73531258     0.15300
C1021       C  0.25436061  0.75280039  0.68046566     0.30700
C1022       C  0.27694458  0.73914712  0.67851763    -0.35600
C1023       C  0.28233073  0.72428832  0.69474097     0.16700
C1024       C  0.26648666  0.72301981  0.71165004     0.22500
C1025       C  0.24410306  0.73686276  0.71366325    -0.33700
C1026       C  0.23879428  0.75181537  0.69745983     0.16600
O1027       O  0.24535264  0.76736686  0.66704441    -0.25700
C1028       C  0.22390711  0.77616267  0.67548444     0.06400
C1029       C  0.21891588  0.76719205  0.69449556    -0.30600
O1030       O  0.27532971  0.70833355  0.72502033    -0.22400
C1031       C  0.29740078  0.70012644  0.71679196    -0.02400
C1032       C  0.30257594  0.70932039  0.69781058    -0.16900
H1033       H  0.28941032  0.74003466  0.66525744     0.21100
H1034       H  0.23179196  0.73609499  0.72696581     0.19500
H1035       H  0.20262932  0.77090099  0.70453071     0.19400
H1036       H  0.31937474  0.70626653  0.68785125     0.15300
C1037       C  0.10962796  0.68888201  0.57211651     0.30700
C1038       C  0.11572483  0.66543620  0.56178544    -0.35600
C1039       C  0.08901845  0.64333857  0.54945429     0.16700
C1040       C  0.05833325  0.64409068  0.54748516     0.22500
C1041       C  0.05221618  0.66747376  0.55784595    -0.33700
C1042       C  0.07895480  0.68964468  0.57011886     0.16600
O1043       O  0.13125096  0.71231677  0.58420641    -0.25700
C1044       C  0.11412157  0.72818674  0.59006777     0.06400
C1045       C  0.08147719  0.71517805  0.58175767    -0.30600
O1046       O  0.03691695  0.62109038  0.53515940    -0.22400
C1047       C  0.05419199  0.60553538  0.52905781    -0.02400
C1048       C  0.08672907  0.61828266  0.53749652    -0.16900
H1049       H  0.13970862  0.66463794  0.56316935     0.21100
H1050       H  0.02832778  0.66842667  0.55637605     0.19500
H1051       H  0.06258758  0.72365734  0.58381323     0.19400
H1052       H  0.10576215  0.61004832  0.53524995     0.15300
C1053       C  0.35703877  0.94075847  0.54666409     0.30700
C1054       C  0.33610258  0.94826819  0.55833778    -0.35600
C1055       C  0.31373951  0.92154062  0.57054242     0.16700
C1056       C  0.31201814  0.88955702  0.57124632     0.22500
C1057       C  0.33305155  0.88205468  0.55958111    -0.33700
C1058       C  0.35540269  0.90880767  0.54732482     0.16600
O1059       O  0.38027772  0.96223276  0.53446795    -0.25700
C1060       C  0.39367515  0.94381628  0.52716407     0.06400
C1061       C  0.37914700  0.91033608  0.53458844    -0.30600
O1062       O  0.28849099  0.86810082  0.58338134    -0.22400
C1063       C  0.27506536  0.88665904  0.59052398    -0.02400
C1064       C  0.28987405  0.92011896  0.58309943    -0.16900
H1065       H  0.33715317  0.97322329  0.55791701     0.21100
H1066       H  0.33195058  0.85707576  0.55997159     0.19500
H1067       H  0.38581639  0.89044288  0.53143325     0.19400
H1068       H  0.28330819  0.94012364  0.58614841     0.15300
C1069       C  0.08321569  0.89300285  0.57121616     0.30700
C1070       C  0.05615997  0.88434673  0.55828352    -0.35600
C1071       C  0.05959967  0.91152067  0.54671654     0.16700
C1072       C  0.08768486  0.94495440  0.54782530     0.22500
C1073       C  0.11470817  0.95364083  0.56080771    -0.33700
C1074       C  0.11131670  0.92642439  0.57235724     0.16600
O1075       O  0.08592826  0.87133032  0.58286184    -0.25700
C1076       C  0.11617574  0.89104071  0.59157332     0.06400
C1077       C  0.13308173  0.92562591  0.58567538    -0.30600
O1078       O  0.08521568  0.96643195  0.53590027    -0.22400
C1079       C  0.05516327  0.94649673  0.52705673    -0.02400
C1080       C  0.03812433  0.91206076  0.53317521    -0.16900
H1081       H  0.03407896  0.85817831  0.55723048     0.21100
H1082       H  0.13689356  0.97975826  0.56177666     0.19500
H1083       H  0.15824218  0.94673134  0.59007984     0.19400
H1084       H  0.01313225  0.89081106  0.52866182     0.15300
Zn1085     Zn  0.62068718  0.31171749  0.62509312     1.49700
Zn1086     Zn  0.66639452  0.33251603  0.66338294     1.49400
Zn1087     Zn  0.69189389  0.30975167  0.62573524     1.49100
Zn1088     Zn  0.69291771  0.38205760  0.62601023     1.49500
O1089       O  0.66800844  0.33397552  0.63538586    -1.83200
O1090       O  0.58496449  0.29462055  0.64570408    -0.73800
O1091       O  0.69139938  0.30643778  0.67333783    -0.73600
O1092       O  0.66019411  0.26889192  0.60928292    -0.73100
O1093       O  0.61477904  0.30605634  0.67251844    -0.73800
O1094       O  0.61121943  0.27132463  0.60835171    -0.73400
O1095       O  0.70913259  0.29260470  0.64701956    -0.74000
O1096       O  0.73293434  0.39071264  0.60914811    -0.73400
O1097       O  0.69191961  0.38347405  0.67363947    -0.74100
O1098       O  0.73326896  0.34076308  0.60941104    -0.73500
O1099       O  0.71261134  0.41519250  0.64748466    -0.74000
O1100       O  0.66212725  0.39454294  0.61060024    -0.73900
O1101       O  0.61244911  0.34418370  0.60908818    -0.73700
C1102       C  0.58584169  0.29339905  0.66357431     0.78100
C1103       C  0.70712184  0.29262850  0.66488346     0.78600
C1104       C  0.62923427  0.25753645  0.60334049     0.77600
C1105       C  0.74579080  0.37204995  0.60385377     0.77900
C1106       C  0.70977687  0.41291871  0.66531333     0.79100
C1107       C  0.63100512  0.37609176  0.60463277     0.78100
C1108       C  0.83297167  0.16503327  0.71860746     0.46400
H1109       H  0.83221598  0.16419298  0.70299478    -0.02600
C1110       C  0.83460760  0.16631413  0.75538930     0.46500
H1111       H  0.83545791  0.16695368  0.77103210    -0.02600
C1112       C  0.81439524  0.12836802  0.72782955    -0.16300
C1113       C  0.87039938  0.18319031  0.72685241    -0.16000
C1114       C  0.81508023  0.18423135  0.72757189    -0.16400
C1115       C  0.81602792  0.12956948  0.74717762    -0.16400
C1116       C  0.87071928  0.18437355  0.74620689    -0.16000
C1117       C  0.81602882  0.18437725  0.74693999    -0.16300
Zn1118     Zn  0.66648933  0.33376697  0.86257620     1.49700
Zn1119     Zn  0.64179874  0.28472600  0.82664355     1.49400
Zn1120     Zn  0.64218430  0.35804732  0.82681116     1.49100
Zn1121     Zn  0.71438783  0.35633756  0.82598661     1.49500
O1122       O  0.66617285  0.33321676  0.83526153    -1.83200
O1123       O  0.64528894  0.28613705  0.87312786    -0.73800
O1124       O  0.59970382  0.27561981  0.81155648    -0.73600
O1125       O  0.62558131  0.37568341  0.84866361    -0.73100
O1126       O  0.62294089  0.25115951  0.84842713    -0.73800
O1127       O  0.63974725  0.35476236  0.87342346    -0.73400
O1128       O  0.60000896  0.32615019  0.81093630    -0.74000
O1129       O  0.72489944  0.39964353  0.81114709    -0.73400
O1130       O  0.67428075  0.27308169  0.81182175    -0.74100
O1131       O  0.67514041  0.40086489  0.81233797    -0.73500
O1132       O  0.72359689  0.32404720  0.81009112    -0.74000
O1133       O  0.74879130  0.37130284  0.84765743    -0.73900
O1134       O  0.71460750  0.36045484  0.87266301    -0.73700
C1135       C  0.62769753  0.25596051  0.86606151     0.78100
C1136       C  0.58609042  0.29393552  0.80675933     0.78600
C1137       C  0.62608941  0.37142475  0.86634806     0.77600
C1138       C  0.70698029  0.41424749  0.80745302     0.77900
C1139       C  0.70591057  0.29159731  0.80645576     0.79100
C1140       C  0.74458593  0.37233482  0.86532336     0.78100
Zn1141     Zn  0.78470220  0.14291199  0.32409167     1.49700
Zn1142     Zn  0.85756102  0.14180614  0.32426073     1.49400
Zn1143     Zn  0.85846214  0.21560125  0.32421545     1.49100
Zn1144     Zn  0.83355574  0.16673887  0.35982783     1.49500
O1145       O  0.83355761  0.16673444  0.33267095    -1.83200
O1146       O  0.77384645  0.09912465  0.30948704    -0.73800
O1147       O  0.90124507  0.17474497  0.30965536    -0.73600
O1148       O  0.82584614  0.22626514  0.30944333    -0.73100
O1149       O  0.82481620  0.10026518  0.30814454    -0.73800
O1150       O  0.77569196  0.17584466  0.30819635    -0.73400
O1151       O  0.89951894  0.22417618  0.30790022    -0.74000
O1152       O  0.85920957  0.21353111  0.37042836    -0.73400
O1153       O  0.87264145  0.12278254  0.34638283    -0.74100
O1154       O  0.87744574  0.25004012  0.34625465    -0.73500
O1155       O  0.85454063  0.14086043  0.37073458    -0.74000
O1156       O  0.78665386  0.14600885  0.37052671    -0.73900
O1157       O  0.75066807  0.12794289  0.34610747    -0.73700
C1158       C  0.79235904  0.08592054  0.30423656     0.78100
C1159       C  0.91402207  0.20619447  0.30412482     0.78600
C1160       C  0.79410854  0.20818779  0.30424687     0.77600
C1161       C  0.87505998  0.24419568  0.36391081     0.77900
C1162       C  0.86913594  0.12487517  0.36406120     0.79100
C1163       C  0.75615965  0.13147205  0.36377642     0.78100
C1164       C  0.66641494  0.33337710  0.21520100     0.46400
H1165       H  0.66640626  0.33339893  0.19955958    -0.02600
C1166       C  0.66650283  0.33337142  0.25202404     0.46500
H1167       H  0.66655137  0.33337928  0.26766457    -0.02600
C1168       C  0.62973779  0.31451293  0.22401360    -0.16300
C1169       C  0.68558717  0.31586597  0.22394146    -0.16000
C1170       C  0.68413635  0.36992257  0.22395453    -0.16400
C1171       C  0.62987510  0.31442180  0.24330259    -0.16400
C1172       C  0.68565325  0.31587739  0.24321782    -0.16000
C1173       C  0.68394602  0.36999864  0.24323956    -0.16300
Zn1174     Zn  0.85753124  0.21512692  0.14296967     1.49700
Zn1175     Zn  0.78397715  0.14222424  0.14396395     1.49400
Zn1176     Zn  0.83137648  0.16478666  0.10798436     1.49100
Zn1177     Zn  0.85740124  0.14231543  0.14386562     1.49500
O1178       O  0.83254540  0.16612048  0.13507676    -1.83200
O1179       O  0.82590883  0.22535020  0.15912224    -0.73800
O1180       O  0.74871094  0.12335210  0.12244112    -0.73600
O1181       O  0.85274311  0.21130685  0.09669003    -0.73100
O1182       O  0.77455957  0.17603265  0.15839558    -0.73800
O1183       O  0.87277563  0.24829888  0.12060590    -0.73400
O1184       O  0.78403146  0.13929986  0.09774894    -0.74000
O1185       O  0.87821569  0.12880020  0.12208158    -0.73400
O1186       O  0.77502308  0.10069544  0.15997925    -0.74100
O1187       O  0.85686479  0.14310559  0.09757485    -0.73500
O1188       O  0.82385031  0.09783480  0.15747428    -0.74000
O1189       O  0.89778722  0.17417634  0.16084683    -0.73900
O1190       O  0.90119090  0.22581862  0.15735198    -0.73700
C1191       C  0.79355502  0.20777813  0.16328538     0.78100
C1192       C  0.75367768  0.12460996  0.10473531     0.78600
C1193       C  0.86843803  0.24210224  0.10302702     0.77600
C1194       C  0.87468453  0.13058703  0.10439768     0.77900
C1195       C  0.79247036  0.08535308  0.16311451     0.79100
C1196       C  0.91314647  0.20696543  0.16374494     0.78100
Zn1197     Zn  0.49922698  0.00070388  0.01166031     1.49700
Zn1198     Zn  0.97284396  0.02229380  0.97590060     1.49400
Zn1199     Zn  0.54761750  0.02691018  0.97614846     1.49100
Zn1200     Zn  0.97716773  0.45195057  0.97632733     1.49500
O1201       O  0.49918089  0.00038979  0.98472027    -1.83200
O1202       O  0.97775620  0.02651186  0.02196836    -0.73800
O1203       O  0.50189906  0.06078884  0.95764747    -0.73600
O1204       O  0.58233131  0.04258566  0.99775298    -0.73100
O1205       O  0.95772089  0.04220180  0.99739615    -0.73800
O1206       O  0.54626128  0.02246975  0.02215470    -0.73400
O1207       O  0.55539157  0.06859045  0.96126619    -0.74000
O1208       O  0.51182581  0.44429225  0.96205676    -0.73400
O1209       O  0.93105869  0.48825391  0.96130176    -0.74100
O1210       O  0.55783918  0.49751934  0.95860875    -0.73500
O1211       O  0.93834013  0.44222617  0.95803144    -0.74000
O1212       O  0.95809265  0.41735906  0.99820628    -0.73900
O1213       O  0.97458317  0.45381223  0.02239123    -0.73700
C1214       C  0.96230195  0.04149761  0.01506259     0.78100
C1215       C  0.53438803  0.07704844  0.95398159     0.78600
C1216       C  0.57678820  0.03818336  0.01540255     0.77600
C1217       C  0.54170794  0.46501626  0.95511483     0.77900
C1218       C  0.92234974  0.45869204  0.95415298     0.79100
C1219       C  0.95988083  0.42315972  0.01585304     0.78100
Zn1220     Zn  0.54953741  0.02444808  0.49256146     1.49700
Zn1221     Zn  0.97728579  0.45105620  0.49175903     1.49400
Zn1222     Zn  0.97623249  0.02409664  0.49300662     1.49100
Zn1223     Zn  0.50094707  0.50135072  0.45679847     1.49500
O1224       O  0.50095002  0.50024476  0.48387670    -1.83200
O1225       O  0.55904408  0.49252637  0.50853569    -0.73800
O1226       O  0.93580386  0.44059581  0.50797015    -0.73600
O1227       O  0.50798552  0.06468367  0.50987933    -0.73100
O1228       O  0.50922700  0.44187096  0.50797891    -0.73800
O1229       O  0.55815960  0.06429751  0.50958270    -0.73400
O1230       O  0.93557615  0.49079167  0.50909406    -0.74000
O1231       O  0.97513537  0.02332888  0.44673502    -0.73400
O1232       O  0.96121608  0.41734947  0.46957185    -0.74100
O1233       O  0.95759352  0.04115295  0.47147617    -0.73500
O1234       O  0.97918943  0.45459283  0.44569384    -0.74000
O1235       O  0.54825801  0.02683100  0.44626961    -0.73900
O1236       O  0.58415915  0.04283427  0.47075754    -0.73700
C1237       C  0.54051302  0.46087868  0.51362521     0.78100
C1238       C  0.92299789  0.45901601  0.51387605     0.78600
C1239       C  0.53941187  0.07683543  0.51534645     0.77600
C1240       C  0.95941570  0.03799776  0.45372816     0.77900
C1241       C  0.96446567  0.42371747  0.45197319     0.79100
C1242       C  0.57877061  0.04151063  0.45307526     0.78100
C1243       C  0.63044521  0.06260121  0.05483881     0.30700
C1244       C  0.63784207  0.06586639  0.07416246    -0.35600
C1245       C  0.67326146  0.08364741  0.07892776     0.16700
C1246       C  0.69936840  0.09708559  0.06552318     0.22500
C1247       C  0.69196762  0.09383716  0.04622463    -0.33700
C1248       C  0.65660532  0.07615376  0.04146715     0.16600
O1249       O  0.59923065  0.04739713  0.04727406    -0.25700
C1250       C  0.60545541  0.05130060  0.02886332     0.06400
C1251       C  0.64069690  0.06896793  0.02434005    -0.30600
O1252       O  0.73062225  0.11285040  0.07301103    -0.22400
C1253       C  0.72462436  0.10958475  0.09143810    -0.02400
C1254       C  0.68936533  0.09165195  0.09604682    -0.16900
H1255       H  0.61743143  0.05544887  0.08470017     0.21100
H1256       H  0.71236871  0.10450894  0.03568613     0.19500
H1257       H  0.65270999  0.07570858  0.01055509     0.19400
H1258       H  0.67747397  0.08558745  0.10986982     0.15300
C1259       C  0.91877837  0.34482247  0.04109240     0.30700
C1260       C  0.89910364  0.30877816  0.04389945    -0.35600
C1261       C  0.89423125  0.29767605  0.06268267     0.16700
C1262       C  0.90771605  0.32030775  0.07773072     0.22500
C1263       C  0.92731915  0.35634570  0.07493116    -0.33700
C1264       C  0.93216186  0.36743844  0.05615254     0.16600
O1265       O  0.92669155  0.36108027  0.02471442    -0.25700
C1266       C  0.94523784  0.39449250  0.02944936     0.06400
C1267       C  0.94949124  0.39992304  0.04878081    -0.30600
O1268       O  0.90030352  0.30405169  0.09408975    -0.22400
C1269       C  0.88184178  0.27062715  0.08937379    -0.02400
C1270       C  0.87722685  0.26515742  0.07006177    -0.16900
H1271       H  0.88844828  0.29066150  0.03227856     0.21100
H1272       H  0.93813538  0.37445105  0.08654943     0.19500
H1273       H  0.96339042  0.42436784  0.05630415     0.19400
H1274       H  0.86361408  0.24067455  0.06255275     0.15300
C1275       C  0.94105610  0.07443356  0.05416348     0.30700
C1276       C  0.93998276  0.08089671  0.07339280    -0.35600
C1277       C  0.92012481  0.09632947  0.07824474     0.16700
C1278       C  0.90280446  0.10490865  0.06500464     0.22500
C1279       C  0.90408033  0.09867185  0.04577852    -0.33700
C1280       C  0.92378914  0.08310668  0.04093855     0.16600
O1281       O  0.95697357  0.05909838  0.04662333    -0.25700
C1282       C  0.94991485  0.05800049  0.02836600     0.06400
C1283       C  0.92941990  0.07263291  0.02391644    -0.30600
O1284       O  0.88503940  0.11821005  0.07261925    -0.22400
C1285       C  0.89089805  0.11809739  0.09095411    -0.02400
C1286       C  0.91265564  0.10487055  0.09537778    -0.16900
H1287       H  0.95317482  0.07382432  0.08382798     0.21100
H1288       H  0.89021699  0.10499570  0.03538994     0.19500
H1289       H  0.91958591  0.07456541  0.01029129     0.19400
H1290       H  0.92124464  0.10164064  0.10910971     0.15300
C1291       C  0.54610771  0.26049262  0.20557573     0.30700
C1292       C  0.51318612  0.23036916  0.20444819    -0.35600
C1293       C  0.98947670  0.23178349  0.19190458     0.16700
C1294       C  0.99735749  0.26109909  0.18145137     0.22500
C1295       C  0.53049211  0.29116415  0.18242691    -0.33700
C1296       C  0.55449963  0.28949748  0.19471332     0.16600
O1297       O  0.57173452  0.26510635  0.21681511    -0.25700
C1298       C  0.59716484  0.29725775  0.21291350     0.06400
C1299       C  0.58808831  0.31368073  0.19917257    -0.30600
O1300       O  0.97115858  0.25662461  0.17065237    -0.22400
C1301       C  0.94639355  0.22388175  0.17405742    -0.02400
C1302       C  0.95637769  0.20712667  0.18711752    -0.16900
H1303       H  0.50653010  0.20739994  0.21278778     0.21100
H1304       H  0.53711567  0.31418196  0.17414021     0.19500
H1305       H  0.60337158  0.34010832  0.19398259     0.19400
H1306       H  0.94152926  0.18055890  0.19216724     0.15300
C1307       C  0.71144674  0.45165977  0.20386791     0.30700
C1308       C  0.71213830  0.48338195  0.20138002    -0.35600
C1309       C  0.73862862  0.00774649  0.18971572     0.16700
C1310       C  0.76301140  0.00148522  0.18116314     0.22500
C1311       C  0.76203096  0.46946600  0.18343311    -0.33700
C1312       C  0.73517593  0.44487205  0.19493646     0.16600
O1313       O  0.68986151  0.42591617  0.21485351    -0.25700
C1314       C  0.69942423  0.40205567  0.21266624     0.06400
C1315       C  0.72730444  0.41220044  0.20037161    -0.30600
O1316       O  0.78577062  0.02824870  0.17104321    -0.22400
C1317       C  0.77551940  0.05171622  0.17300922    -0.02400
C1318       C  0.74623923  0.04029754  0.18439213    -0.16900
H1319       H  0.69350533  0.48883451  0.20823657     0.21100
H1320       H  0.78092162  0.46416364  0.17676622     0.19500
H1321       H  0.74077433  0.39821780  0.19674890     0.19400
H1322       H  0.73255960  0.05400883  0.18815261     0.15300
C1323       C  0.74084432  0.28877183  0.20430777     0.30700
C1324       C  0.77174928  0.28746936  0.20229419    -0.35600
C1325       C  0.76999749  0.26155741  0.19026464     0.16700
C1326       C  0.73973776  0.23815420  0.18110454     0.22500
C1327       C  0.70899846  0.23988342  0.18284758    -0.33700
C1328       C  0.71090825  0.26619010  0.19462460     0.16600
O1329       O  0.73618115  0.30980616  0.21549999    -0.25700
C1330       C  0.70304368  0.30102844  0.21268666     0.06400
C1331       C  0.68604975  0.27426504  0.19974517    -0.30600
O1332       O  0.74379508  0.21559231  0.17087106    -0.22400
C1333       C  0.77719209  0.22495197  0.17330258    -0.02400
C1334       C  0.79485684  0.25352018  0.18514220    -0.16900
H1335       H  0.79541672  0.30521740  0.20973357     0.21100
H1336       H  0.68519252  0.22182949  0.17561564     0.19500
H1337       H  0.65891615  0.26148966  0.19553281     0.19400
H1338       H  0.82201239  0.26643184  0.18932227     0.15300
C1339       C  0.73868060  0.45163522  0.26358209     0.30700
C1340       C  0.77026561  0.48248617  0.26688996    -0.35600
C1341       C  0.76817315  0.00771751  0.27784446     0.16700
C1342       C  0.73698977  0.00344299  0.28458407     0.22500
C1343       C  0.70537379  0.47229526  0.28149507    -0.33700
C1344       C  0.70757361  0.44668010  0.27087956     0.16600
O1345       O  0.73462648  0.42502914  0.25336523    -0.25700
C1346       C  0.70059647  0.40240151  0.25441696     0.06400
C1347       C  0.68238924  0.41434983  0.26514168    -0.30600
O1348       O  0.74116545  0.03069502  0.29430753    -0.22400
C1349       C  0.77551464  0.05256143  0.29392706    -0.02400
C1350       C  0.79359489  0.03954296  0.28392130    -0.16900
H1351       H  0.79482450  0.48647873  0.26135942     0.21100
H1352       H  0.68079541  0.46833919  0.28697112     0.19500
H1353       H  0.65454199  0.40166677  0.26762695     0.19400
H1354       H  0.82146210  0.05165067  0.28163718     0.15300
C1355       C  0.99778126  0.23576323  0.28581444     0.30700
C1356       C  0.53033052  0.23764271  0.28412472    -0.35600
C1357       C  0.55478728  0.26417676  0.27244589     0.16700
C1358       C  0.54742132  0.28683513  0.26281246     0.22500
C1359       C  0.51510590  0.28530858  0.26471700    -0.33700
C1360       C  0.99088883  0.25916198  0.27663705     0.16600
O1361       O  0.97124120  0.21328348  0.29615673    -0.25700
C1362       C  0.94722434  0.22269467  0.29375615     0.06400
C1363       C  0.95804282  0.25115202  0.28180058    -0.30600
O1364       O  0.57322783  0.30817940  0.25176235    -0.22400
C1365       C  0.59765571  0.29949945  0.25460630    -0.02400
C1366       C  0.58783518  0.27249177  0.26742189    -0.16900
H1367       H  0.53614234  0.21963434  0.29137431     0.21100
H1368       H  0.50919568  0.30312641  0.25733070     0.19500
H1369       H  0.94389053  0.26421732  0.27770893     0.19400
H1370       H  0.60221984  0.25970506  0.27158507     0.15300
C1371       C  0.73920310  0.29147658  0.26746704     0.30700
C1372       C  0.77035610  0.29595266  0.27525183    -0.35600
C1373       C  0.76948267  0.26563290  0.28183599     0.16700
C1374       C  0.73999404  0.23311187  0.28086223     0.22500
C1375       C  0.70888211  0.22860221  0.27298052    -0.33700
C1376       C  0.70973814  0.25892638  0.26640835     0.16800
O1377       O  0.73437383  0.31613200  0.26011332    -0.25700
C1378       C  0.70132515  0.29915227  0.25442128     0.06400
C1379       C  0.68475426  0.26352819  0.25785030    -0.30600
O1380       O  0.74483818  0.20847281  0.28824437    -0.22400
C1381       C  0.77792870  0.22540083  0.29394606    -0.02400
C1382       C  0.79454132  0.26102981  0.29028494    -0.16900
H1383       H  0.79365980  0.32130175  0.27610061     0.21100
H1384       H  0.68561018  0.20323609  0.27207527     0.19500
H1385       H  0.65848317  0.24386403  0.25404708     0.19400
H1386       H  0.82098150  0.28075410  0.29375134     0.15300
C1387       C  0.70212407  0.10559997  0.40317769     0.30700
C1388       C  0.69453023  0.10074656  0.42246898    -0.35600
C1389       C  0.65907819  0.08304409  0.42717493     0.16700
C1390       C  0.63305435  0.07109358  0.41376467     0.22500
C1391       C  0.64065275  0.07597800  0.39448014    -0.33700
C1392       C  0.67608802  0.09361050  0.38977368     0.16600
O1393       O  0.73341816  0.12076693  0.39566224    -0.25700
C1394       C  0.72739715  0.11842362  0.37723739     0.06400
C1395       C  0.69219541  0.10185851  0.37267091    -0.30600
O1396       O  0.60172992  0.05510249  0.42124430    -0.22400
C1397       C  0.60767969  0.05681369  0.43966235    -0.02400
C1398       C  0.64290216  0.07386484  0.44425495    -0.16900
H1399       H  0.71483447  0.10990182  0.43303283     0.21100
H1400       H  0.62034821  0.06648008  0.38390716     0.19500
H1401       H  0.68031723  0.09628524  0.35885759     0.19400
H1402       H  0.65473724  0.07868843  0.45806468     0.15300
C1403       C  0.91507064  0.32223857  0.38946486     0.30700
C1404       C  0.93282926  0.35828426  0.39245198    -0.35600
C1405       C  0.93827719  0.36895443  0.41131141     0.16700
C1406       C  0.92708438  0.34593869  0.42627634     0.22500
C1407       C  0.90935331  0.30990776  0.42329443    -0.33700
C1408       C  0.90394478  0.29924967  0.40444077     0.16600
O1409       O  0.90679927  0.30631240  0.37299479    -0.25700
C1410       C  0.89023107  0.27273010  0.37758795     0.06400
C1411       C  0.88773823  0.26689388  0.39691952    -0.30600
O1412       O  0.93478098  0.36181573  0.44274654    -0.22400
C1413       C  0.95110714  0.39540219  0.43818155    -0.02400
C1414       C  0.95403132  0.40131636  0.41885915    -0.16900
H1415       H  0.94165982  0.37671172  0.38091293     0.21100
H1416       H  0.90029656  0.29147830  0.43483571     0.19500
H1417       H  0.87544979  0.24225263  0.40435730     0.19400
H1418       H  0.96589992  0.42598401  0.41145454     0.15300
C1419       C  0.92871152  0.06167664  0.41443255     0.30700
C1420       C  0.92432860  0.06473557  0.39511675    -0.35600
C1421       C  0.90657232  0.08238664  0.39031511     0.16700
C1422       C  0.89389066  0.09588116  0.40366091     0.22500
C1423       C  0.89807544  0.09262326  0.42300217    -0.33700
C1424       C  0.91602212  0.07511255  0.42780856     0.16600
O1425       O  0.94530753  0.04698955  0.42194893    -0.25700
C1426       C  0.94333371  0.05100434  0.44037695     0.06400
C1427       C  0.92532064  0.06828776  0.44493581    -0.30600
O1428       O  0.87891460  0.11215105  0.39605250    -0.22400
C1429       C  0.88204599  0.10909056  0.37762187    -0.02400
C1430       C  0.89898495  0.09074360  0.37315848    -0.16900
H1431       H  0.93450807  0.05450900  0.38458768     0.21100
H1432       H  0.88846921  0.10342452  0.43352204     0.19500
H1433       H  0.92018880  0.07507311  0.45873330     0.19400
H1434       H  0.90520857  0.08492626  0.35938067     0.15300
C1435       C  0.60535438  0.19829483  0.90355956     0.30700
C1436       C  0.60914272  0.18764209  0.92149137    -0.35600
C1437       C  0.58285414  0.15463013  0.92707157     0.16700
C1438       C  0.55432920  0.13374175  0.91595683     0.22500
C1439       C  0.55080776  0.14420213  0.89782171    -0.33700
C1440       C  0.57758289  0.17706674  0.89206776     0.16600
O1441       O  0.62662303  0.22847555  0.89576706    -0.25700
C1442       C  0.61275804  0.22640397  0.87893226     0.06400
C1443       C  0.58229543  0.19498439  0.87571524    -0.30600
O1444       O  0.53274186  0.10396403  0.92420648    -0.22400
C1445       C  0.54806637  0.10585277  0.94061460    -0.02400
C1446       C  0.57936672  0.13658679  0.94312439    -0.16900
H1447       H  0.63110605  0.20395049  0.93044868     0.21100
H1448       H  0.52888451  0.12787458  0.88884587     0.19500
H1449       H  0.56557811  0.18710591  0.86344693     0.19400
H1450       H  0.59696783  0.14433948  0.95501478     0.15300
C1451       C  0.80436117  0.41268675  0.90152529     0.30700
C1452       C  0.81672583  0.43131264  0.91831551    -0.35600
C1453       C  0.84765855  0.43433326  0.92527014     0.16700
C1454       C  0.86505567  0.41959008  0.91650259     0.22500
C1455       C  0.85303945  0.40151107  0.89942473    -0.33700
C1456       C  0.82226681  0.39896518  0.89226918     0.16600
O1457       O  0.77516317  0.40556647  0.89303925    -0.25700
C1458       C  0.77463667  0.38774499  0.87791194     0.06400
C1459       C  0.80332602  0.38291789  0.87655755    -0.30600
O1460       O  0.89316220  0.42515812  0.92582556    -0.22400
C1461       C  0.89376377  0.44398586  0.94056426    -0.02400
C1462       C  0.86629813  0.45071309  0.94086699    -0.16900
H1463       H  0.80300095  0.44242493  0.92553720     0.21100
H1464       H  0.86659064  0.39012302  0.89229420     0.19500
H1465       H  0.80852639  0.36838015  0.86606000     0.19400
H1466       H  0.86098373  0.46561614  0.95107657     0.15300
C1467       C  0.58237708  0.44640564  0.91847339     0.30700
C1468       C  0.59986763  0.45190910  0.90122744    -0.35600
C1469       C  0.60162443  0.42333704  0.89403239     0.16700
C1470       C  0.58799227  0.39193328  0.90346118     0.22500
C1471       C  0.57017963  0.38631269  0.92054933    -0.33700
C1472       C  0.56768768  0.41453307  0.92748689     0.16600
O1473       O  0.57644738  0.46898130  0.92744108    -0.25700
C1474       C  0.55734199  0.45106510  0.94218115     0.06400
C1475       C  0.55099328  0.41707104  0.94292368    -0.30600
O1476       O  0.59409217  0.36935254  0.89470773    -0.22400
C1477       C  0.61108390  0.38613904  0.87924214    -0.02400
C1478       C  0.61640185  0.41977734  0.87796133    -0.16900
H1479       H  0.61095780  0.47656588  0.89385058     0.21100
H1480       H  0.55885631  0.36157386  0.92786050     0.19500
H1481       H  0.53567780  0.39700751  0.95313425     0.19400
H1482       H  0.63054298  0.43921059  0.86725339     0.15300
C1483       C  0.94409679  0.21202924  0.77494630     0.30700
C1484       C  0.96707837  0.20773778  0.78672542    -0.35600
C1485       C  0.49993412  0.23732829  0.78934236     0.16700
C1486       C  0.50935994  0.26925047  0.78132583     0.22500
C1487       C  0.98643618  0.27350708  0.76943314    -0.33700
C1488       C  0.95377127  0.24371864  0.76653387     0.16600
O1489       O  0.91288775  0.18729552  0.76965640    -0.25700
C1490       C  0.90266274  0.20329532  0.75755898     0.06400
C1491       C  0.92687475  0.23843351  0.75513788    -0.30600
O1492       O  0.54116299  0.29357951  0.78611291    -0.22400
C1493       C  0.55237727  0.27674040  0.79701506    -0.02400
C1494       C  0.52790332  0.24169813  0.79943931    -0.16900
H1495       H  0.46009677  0.18287866  0.79309092     0.21100
H1496       H  0.99372654  0.29815042  0.76270208     0.19500
H1497       H  0.92543303  0.25684229  0.74567444     0.19400
H1498       H  0.53007859  0.22253514  0.80790926     0.15300
C1499       C  0.76835721  0.05666104  0.77592303     0.30700
C1500       C  0.73942870  0.03296948  0.78656710    -0.35600
C1501       C  0.73657530  0.50039849  0.78980366     0.16700
C1502       C  0.76091048  0.49195819  0.78337143     0.22500
C1503       C  0.78972317  0.01555607  0.77264448    -0.33700
C1504       C  0.79229945  0.04792135  0.76917505     0.16600
O1505       O  0.77475999  0.08756718  0.77004665    -0.25700
C1506       C  0.80299451  0.09856293  0.75932356     0.06400
C1507       C  0.81519163  0.07512280  0.75835185    -0.30600
O1508       O  0.75356316  0.46034908  0.78842799    -0.22400
C1509       C  0.72385883  0.44821588  0.79797380    -0.02400
C1510       C  0.71196579  0.47191783  0.79920420    -0.16900
H1511       H  0.72006248  0.03919847  0.79160427     0.21100
H1512       H  0.80853269  0.00894913  0.76714172     0.19500
H1513       H  0.83649198  0.07702040  0.74993079     0.19400
H1514       H  0.68908409  0.46892728  0.80646433     0.15300
C1515       C  0.79085150  0.23915784  0.76902690     0.30700
C1516       C  0.79168555  0.27072260  0.77261117    -0.35600
C1517       C  0.76278579  0.26822770  0.78221384     0.16700
C1518       C  0.73483634  0.23682897  0.78784928     0.22500
C1519       C  0.73421091  0.20524697  0.78447155    -0.33700
C1520       C  0.76325426  0.20774588  0.77497094     0.16600
O1521       O  0.81395466  0.23529041  0.75914238    -0.25700
C1522       C  0.80124494  0.20100324  0.75896908     0.06400
C1523       C  0.76992029  0.18253199  0.76869045    -0.30600
O1524       O  0.71052646  0.24065065  0.79655135    -0.22400
C1525       C  0.72316254  0.27497852  0.79656430    -0.02400
C1526       C  0.75563117  0.29339016  0.78785385    -0.16900
H1527       H  0.81313524  0.29548705  0.76795740     0.21100
H1528       H  0.71241643  0.18041824  0.78876495     0.19500
H1529       H  0.75343348  0.15454739  0.76985057     0.19400
H1530       H  0.77185219  0.32132294  0.78620769     0.15300
C1531       C  0.94186829  0.22520983  0.69536593     0.30700
C1532       C  0.96133395  0.24689483  0.68031221    -0.35600
C1533       C  0.49680463  0.25628556  0.67951595     0.16700
C1534       C  0.51232418  0.24546041  0.69269147     0.22500
C1535       C  0.99270943  0.22322021  0.70750579    -0.33700
C1536       C  0.95720376  0.21358535  0.70818133     0.16600
O1537       O  0.90886382  0.21492347  0.69955923    -0.25700
C1538       C  0.90297798  0.19646310  0.71533294     0.06400
C1539       C  0.93201289  0.19411541  0.72095445    -0.30600
O1540       O  0.54600282  0.25788145  0.68937851    -0.22400
C1541       C  0.55206694  0.27663388  0.67371802    -0.02400
C1542       C  0.52233845  0.27637740  0.66695907    -0.16900
H1543       H  0.94978727  0.25624390  0.67008234     0.21100
H1544       H  0.00439473  0.21437875  0.71794165     0.19500
H1545       H  0.93473127  0.18112881  0.73320080     0.19400
H1546       H  0.51991665  0.28904520  0.65447839     0.15300
C1547       C  0.73739050  0.48506634  0.69551037     0.30700
C1548       C  0.73496548  0.00457031  0.71040318    -0.35600
C1549       C  0.76036100  0.04014699  0.71079314     0.16700
C1550       C  0.78681191  0.05560874  0.69769363     0.22500
C1551       C  0.78903846  0.03618225  0.68266251    -0.33700
C1552       C  0.76334375  0.50068877  0.68212128     0.16600
O1553       O  0.71575630  0.45162397  0.69202375    -0.25700
C1554       C  0.72785537  0.44584380  0.67606123     0.06400
C1555       C  0.75735573  0.47547947  0.66930742    -0.30600
O1556       O  0.80863490  0.08896124  0.70135056    -0.22400
C1557       C  0.79597890  0.09496412  0.71705488    -0.02400
C1558       C  0.76543558  0.06559218  0.72318306    -0.16900
H1559       H  0.71453094  0.49291708  0.72091303     0.21100
H1560       H  0.80934392  0.04791172  0.67210669     0.19500
H1561       H  0.77176148  0.47820856  0.65648835     0.19400
H1562       H  0.74954061  0.06296931  0.73532101     0.15300
C1563       C  0.75436093  0.25278282  0.68047088     0.30700
C1564       C  0.77694557  0.23913126  0.67851937    -0.35600
C1565       C  0.78232986  0.22426452  0.69473970     0.16700
C1566       C  0.76648270  0.22298678  0.71164903     0.22500
C1567       C  0.74409827  0.23682828  0.71366589    -0.33700
C1568       C  0.73879188  0.25178953  0.69746540     0.16600
O1569       O  0.74535595  0.26735622  0.66705249    -0.25700
C1570       C  0.72390999  0.27614889  0.67549443     0.06400
C1571       C  0.71891491  0.26716919  0.69450437    -0.30600
O1572       O  0.77532690  0.20829706  0.72501657    -0.22400
C1573       C  0.79740242  0.20009766  0.71678649    -0.02400
C1574       C  0.80257851  0.20929908  0.69780623    -0.16900
H1575       H  0.78941398  0.24002690  0.66525891     0.21100
H1576       H  0.73178605  0.23605423  0.72696902     0.19500
H1577       H  0.70262705  0.27087398  0.70454051     0.19400
H1578       H  0.81938177  0.20625382  0.68784626     0.15300
C1579       C  0.60966638  0.18891301  0.57209853     0.30700
C1580       C  0.61573927  0.16543082  0.56178675    -0.35600
C1581       C  0.58903652  0.14334169  0.54945065     0.16700
C1582       C  0.55837710  0.14413622  0.54745935     0.22500
C1583       C  0.55228497  0.16755688  0.55779983    -0.33700
C1584       C  0.57901948  0.18971848  0.57007756     0.16600
O1585       O  0.63128474  0.21233676  0.58419497    -0.25700
C1586       C  0.61417815  0.22824232  0.59003723     0.06400
C1587       C  0.58155484  0.21526952  0.58170683    -0.30600
O1588       O  0.53695912  0.12113744  0.53513335    -0.22400
C1589       C  0.55420690  0.10554035  0.52905272    -0.02400
C1590       C  0.58672792  0.11825831  0.53750662    -0.16900
H1591       H  0.63970163  0.16459724  0.56318976     0.21100
H1592       H  0.52841613  0.16854166  0.55631285     0.19500
H1593       H  0.56268300  0.22377603  0.58374756     0.19400
H1594       H  0.60573922  0.10999007  0.53527738     0.15300
C1595       C  0.85708843  0.44073427  0.54668166     0.30700
C1596       C  0.83614243  0.44824277  0.55834735    -0.35600
C1597       C  0.81379052  0.42152521  0.57055946     0.16700
C1598       C  0.81208795  0.38955110  0.57127810     0.22500
C1599       C  0.83313381  0.38205042  0.55962156    -0.33700
C1600       C  0.85547434  0.40879430  0.54735721     0.16600
O1601       O  0.88031495  0.46220055  0.53447855    -0.25700
C1602       C  0.89372779  0.44379105  0.52718459     0.06400
C1603       C  0.87922224  0.41032231  0.53462291    -0.30600
O1604       O  0.78856253  0.36810080  0.58341594    -0.22400
C1605       C  0.77512085  0.38665467  0.59054539    -0.02400
C1606       C  0.78991680  0.42010489  0.58310961    -0.16900
H1607       H  0.83717576  0.47318933  0.55791416     0.21100
H1608       H  0.83204747  0.35707870  0.56002303     0.19500
H1609       H  0.88590680  0.39043661  0.53147705     0.19400
H1610       H  0.78333559  0.44010300  0.58614588     0.15300
C1611       C  0.58328607  0.39305743  0.57124312     0.30700
C1612       C  0.55624726  0.38439690  0.55829941    -0.35600
C1613       C  0.55968376  0.41157491  0.54673819     0.16700
C1614       C  0.58774964  0.44501759  0.54786259     0.22500
C1615       C  0.61475726  0.45370874  0.56085649    -0.33700
C1616       C  0.61136991  0.42648676  0.57240006     0.16600
O1617       O  0.58600094  0.37138028  0.58288314    -0.25700
C1618       C  0.61623343  0.39109385  0.59160652     0.06400
C1619       C  0.63312739  0.42568736  0.58572299    -0.30600
O1620       O  0.58527826  0.46649615  0.53593917    -0.22400
C1621       C  0.55524421  0.44655106  0.52708157    -0.02400
C1622       C  0.53822005  0.41210912  0.53318880    -0.16900
H1623       H  0.53418200  0.35822160  0.55723330     0.21100
H1624       H  0.63692893  0.47983245  0.56183724     0.19500
H1625       H  0.65827721  0.44679678  0.59013801     0.19400
H1626       H  0.51324329  0.39085083  0.52866306     0.15300
Zn1627     Zn  0.62064382  0.81169896  0.62509181     1.49700
Zn1628     Zn  0.66636860  0.83250836  0.66337549     1.49400
Zn1629     Zn  0.69186549  0.80975053  0.62572653     1.49100
Zn1630     Zn  0.69286525  0.88204499  0.62599792     1.49500
O1631       O  0.66797133  0.83396565  0.63537826    -1.83200
O1632       O  0.58493247  0.79463448  0.64570729    -0.73800
O1633       O  0.69137977  0.80643376  0.67332663    -0.73600
O1634       O  0.66015693  0.76887575  0.60928735    -0.73100
O1635       O  0.61475496  0.80605313  0.67251801    -0.73800
O1636       O  0.61116297  0.77127518  0.60837486    -0.73400
O1637       O  0.70912853  0.79261856  0.64700830    -0.74000
O1638       O  0.73288376  0.89070949  0.60913512    -0.73400
O1639       O  0.69190581  0.88346743  0.67362891    -0.74100
O1640       O  0.73322373  0.84076265  0.60939139    -0.73500
O1641       O  0.71256254  0.91518475  0.64747097    -0.74000
O1642       O  0.66206394  0.89450920  0.61058093    -0.73900
O1643       O  0.61239732  0.84413978  0.60906565    -0.73700
C1644       C  0.58581504  0.79340848  0.66357707     0.78100
C1645       C  0.70711381  0.79263664  0.66487220     0.78600
C1646       C  0.62918378  0.75749554  0.60336040     0.77600
C1647       C  0.74574062  0.87205007  0.60383584     0.77900
C1648       C  0.70975069  0.91291175  0.66530061     0.79100
C1649       C  0.63094717  0.87604730  0.60460719     0.78100
C1650       C  0.83294693  0.66504252  0.71861153     0.46400
H1651       H  0.83218628  0.66420022  0.70299893    -0.02600
C1652       C  0.83459552  0.66632612  0.75539313     0.46500
H1653       H  0.83545096  0.66696647  0.77103581    -0.02600
C1654       C  0.81436205  0.62837910  0.72783422    -0.16300
C1655       C  0.87037610  0.68318793  0.72685213    -0.16000
C1656       C  0.81507120  0.68425338  0.72757789    -0.16400
C1657       C  0.81599852  0.62957963  0.74718189    -0.16400
C1658       C  0.87070601  0.68437590  0.74620653    -0.16000
C1659       C  0.81602431  0.68440012  0.74694614    -0.16300
Zn1660     Zn  0.66648870  0.83378665  0.86258238     1.49700
Zn1661     Zn  0.64178581  0.78473714  0.82665567     1.49400
Zn1662     Zn  0.64218031  0.85806222  0.82681535     1.49100
Zn1663     Zn  0.71437928  0.85634445  0.82599490     1.49500
O1664       O  0.66616562  0.83322985  0.83526855    -1.83200
O1665       O  0.64530099  0.78616279  0.87314089    -0.73800
O1666       O  0.59968377  0.77562849  0.81157313    -0.73600
O1667       O  0.62557489  0.87569569  0.84866765    -0.73100
O1668       O  0.62294519  0.75118087  0.84844262    -0.73800
O1669       O  0.63974693  0.85477769  0.87342665    -0.73400
O1670       O  0.60000825  0.82616796  0.81093512    -0.74000
O1671       O  0.72489373  0.89964523  0.81115281    -0.73400
O1672       O  0.67425847  0.77308422  0.81183165    -0.74100
O1673       O  0.67514436  0.90088486  0.81234812    -0.73500
O1674       O  0.72357808  0.82404690  0.81010139    -0.74000
O1675       O  0.74878700  0.87131973  0.84766554    -0.73900
O1676       O  0.71460179  0.86048920  0.87266830    -0.73700
C1677       C  0.62770913  0.75598478  0.86607637     0.78100
C1678       C  0.58608004  0.79394855  0.80676663     0.78600
C1679       C  0.62608737  0.87143831  0.86635197     0.77600
C1680       C  0.70698287  0.91425899  0.80746220     0.77900
C1681       C  0.70588836  0.79159748  0.80646554     0.79100
C1682       C  0.74458031  0.87236461  0.86533056     0.78100
Zn1683     Zn  0.78472109  0.64289682  0.32411330     1.49700
Zn1684     Zn  0.85757797  0.64177388  0.32425028     1.49400
Zn1685     Zn  0.85849909  0.71557333  0.32417707     1.49100
Zn1686     Zn  0.83362709  0.66675702  0.35982041     1.49500
O1687       O  0.83359279  0.66672055  0.33266324    -1.83200
O1688       O  0.77383991  0.59909203  0.30951956    -0.73800
O1689       O  0.90127023  0.67469010  0.30964496    -0.73600
O1690       O  0.82588781  0.72620711  0.30937935    -0.73100
O1691       O  0.82481704  0.60025162  0.30812890    -0.73800
O1692       O  0.77568813  0.67582077  0.30822014    -0.73400
O1693       O  0.89954999  0.72412107  0.30786660    -0.74000
O1694       O  0.85928627  0.71357406  0.37038652    -0.73400
O1695       O  0.87265475  0.62274019  0.34637018    -0.74100
O1696       O  0.87748572  0.75005700  0.34620049    -0.73500
O1697       O  0.85464829  0.64090504  0.37072523    -0.74000
O1698       O  0.78673513  0.64603351  0.37054988    -0.73900
O1699       O  0.75072387  0.62795259  0.34614228    -0.73700
C1700       C  0.79234984  0.58589956  0.30424482     0.78100
C1701       C  0.91404924  0.70613225  0.30410234     0.78600
C1702       C  0.79412608  0.70814087  0.30422190     0.77600
C1703       C  0.87511695  0.74423235  0.36385887     0.77900
C1704       C  0.86920255  0.62488061  0.36404982     0.79100
C1705       C  0.75623256  0.63149483  0.36380927     0.78100
C1706       C  0.66649316  0.83341243  0.21520122     0.46400
H1707       H  0.66650938  0.83345163  0.19955975    -0.02600
C1708       C  0.66651777  0.83335856  0.25202401     0.46500
H1709       H  0.66654072  0.83334877  0.26766456    -0.02600
C1710       C  0.62980238  0.81449884  0.22399451    -0.16300
C1711       C  0.68569836  0.81593942  0.22394763    -0.16000
C1712       C  0.68415173  0.86994449  0.22396729    -0.16400
C1713       C  0.62990593  0.81437994  0.24328346    -0.16400
C1714       C  0.68573097  0.81592478  0.24322361    -0.16000
C1715       C  0.68393149  0.86999634  0.24325244    -0.16300
Zn1716     Zn  0.85757603  0.71513457  0.14297539     1.49700
Zn1717     Zn  0.78400659  0.64224276  0.14396526     1.49400
Zn1718     Zn  0.83139693  0.66479969  0.10798472     1.49100
Zn1719     Zn  0.85742290  0.64231304  0.14386009     1.49500
O1720       O  0.83257393  0.66612862  0.13507752    -1.83200
O1721       O  0.82598190  0.72536085  0.15914969    -0.73800
O1722       O  0.74873409  0.62339392  0.12244182    -0.73600
O1723       O  0.85272260  0.71132079  0.09670017    -0.73100
O1724       O  0.77462062  0.67605671  0.15841614    -0.73800
O1725       O  0.87278821  0.74831086  0.12061618    -0.73400
O1726       O  0.78405024  0.63928702  0.09774932    -0.74000
O1727       O  0.87822210  0.62879626  0.12207043    -0.73400
O1728       O  0.77503704  0.60069080  0.15996581    -0.74100
O1729       O  0.85692440  0.64316505  0.09756482    -0.73500
O1730       O  0.82386700  0.59783248  0.15747286    -0.74000
O1731       O  0.89783646  0.67417574  0.16082755    -0.73900
O1732       O  0.90125800  0.72582575  0.15733425    -0.73700
C1733       C  0.79362908  0.70779567  0.16331554     0.78100
C1734       C  0.75369704  0.62462227  0.10473622     0.78600
C1735       C  0.86842356  0.74211491  0.10303816     0.77600
C1736       C  0.87472433  0.63062302  0.10438648     0.77900
C1737       C  0.79248116  0.58534615  0.16310528     0.79100
C1738       C  0.91321309  0.70696769  0.16372011     0.78100
Zn1739     Zn  0.49923915  0.50070680  0.01165530     1.49700
Zn1740     Zn  0.97284762  0.52228889  0.97589622     1.49400
Zn1741     Zn  0.54763145  0.52692689  0.97614547     1.49100
Zn1742     Zn  0.97714749  0.95194063  0.97633547     1.49500
O1743       O  0.49919448  0.50039572  0.98471507    -1.83200
O1744       O  0.97776742  0.52651124  0.02196276    -0.73800
O1745       O  0.50188935  0.56077785  0.95764073    -0.73600
O1746       O  0.58234304  0.54260371  0.99775362    -0.73100
O1747       O  0.95773332  0.54220443  0.99739141    -0.73800
O1748       O  0.54627083  0.52247260  0.02215385    -0.73400
O1749       O  0.55539090  0.56860656  0.96126745    -0.74000
O1750       O  0.51179353  0.94426954  0.96206075    -0.73400
O1751       O  0.93105156  0.98825900  0.96130728    -0.74100
O1752       O  0.55781473  0.99749247  0.95861714    -0.73500
O1753       O  0.93830670  0.94221250  0.95805082    -0.74000
O1754       O  0.95808264  0.91735231  0.99821323    -0.73900
O1755       O  0.97457613  0.95380787  0.02239704    -0.73700
C1756       C  0.96231547  0.54149945  0.01505766     0.78100
C1757       C  0.53437932  0.57705034  0.95397928     0.78600
C1758       C  0.57679860  0.53819412  0.01540311     0.77600
C1759       C  0.54167885  0.96499047  0.95512162     0.77900
C1760       C  0.92232411  0.95868470  0.95416938     0.79100
C1761       C  0.95987584  0.92315468  0.01585952     0.78100
Zn1762     Zn  0.54957583  0.52446804  0.49257793     1.49700
Zn1763     Zn  0.97722061  0.95104988  0.49173619     1.49400
Zn1764     Zn  0.97624755  0.52407371  0.49300948     1.49100
Zn1765     Zn  0.50089673  0.00136054  0.45678522     1.49500
O1766       O  0.50090867  0.00024564  0.48386359    -1.83200
O1767       O  0.55897943  0.99248106  0.50851317    -0.73800
O1768       O  0.93573836  0.94060761  0.50794465    -0.73600
O1769       O  0.50798170  0.56467109  0.50988113    -0.73100
O1770       O  0.50914700  0.94183895  0.50795806    -0.73800
O1771       O  0.55816714  0.56430710  0.50959152    -0.73400
O1772       O  0.93555355  0.99082413  0.50908895    -0.74000
O1773       O  0.97516503  0.52329167  0.44673502    -0.73400
O1774       O  0.96114350  0.91735167  0.46953998    -0.74100
O1775       O  0.95760265  0.54110885  0.47147054    -0.73500
O1776       O  0.97911550  0.95461017  0.44566955    -0.74000
O1777       O  0.54831383  0.52684824  0.44628906    -0.73900
O1778       O  0.58420630  0.54288148  0.47078152    -0.73700
C1779       C  0.54043678  0.96083438  0.51360266     0.78100
C1780       C  0.92295170  0.95904002  0.51385934     0.78600
C1781       C  0.53940816  0.57683414  0.51535084     0.77600
C1782       C  0.95943287  0.53795218  0.45372302     0.77900
C1783       C  0.96438998  0.92373052  0.45194199     0.79100
C1784       C  0.57882425  0.54155377  0.45309882     0.78100
C1785       C  0.63045584  0.56260825  0.05484126     0.30700
C1786       C  0.63785437  0.56587664  0.07416516    -0.35600
C1787       C  0.67327482  0.58365364  0.07893013     0.16700
C1788       C  0.69938086  0.59708270  0.06552500     0.22500
C1789       C  0.69197833  0.59383003  0.04622649    -0.33700
C1790       C  0.65661560  0.57615330  0.04146940     0.16600
O1791       O  0.59924072  0.54740994  0.04727633    -0.25700
C1792       C  0.60546527  0.55131050  0.02886523     0.06400
C1793       C  0.64070689  0.56896988  0.02434229    -0.30600
O1794       O  0.73063584  0.61284749  0.07301212    -0.22400
C1795       C  0.72464052  0.60959265  0.09143960    -0.02400
C1796       C  0.68938117  0.59166558  0.09604899    -0.16900
H1797       H  0.61744443  0.55546665  0.08470324     0.21100
H1798       H  0.71237878  0.60449624  0.03568756     0.19500
H1799       H  0.65272019  0.57570617  0.01055730     0.19400
H1800       H  0.67749111  0.58560996  0.10987231     0.15300
C1801       C  0.91876692  0.84482104  0.04110044     0.30700
C1802       C  0.89906962  0.80877901  0.04390979    -0.35600
C1803       C  0.89419925  0.79768113  0.06269359     0.16700
C1804       C  0.90770944  0.82031409  0.07773980     0.22500
C1805       C  0.92733622  0.85634914  0.07493783    -0.33700
C1806       C  0.93217444  0.86743794  0.05615894     0.16600
O1807       O  0.92667457  0.86107685  0.02472203    -0.25700
C1808       C  0.94524056  0.89448834  0.02945567     0.06400
C1809       C  0.94951384  0.89992029  0.04878605    -0.30600
O1810       O  0.90029934  0.80406144  0.09409952    -0.22400
C1811       C  0.88181240  0.77063816  0.08938570    -0.02400
C1812       C  0.87717813  0.76516548  0.07007473    -0.16900
H1813       H  0.88839418  0.79066126  0.03229041     0.21100
H1814       H  0.93817142  0.87445537  0.08655460     0.19500
H1815       H  0.96342787  0.92436504  0.05630812     0.19400
H1816       H  0.86354886  0.74068202  0.06256745     0.15300
C1817       C  0.94105672  0.57441739  0.05416098     0.30700
C1818       C  0.93995636  0.58085249  0.07339182    -0.35600
C1819       C  0.92013973  0.59633213  0.07823943     0.16700
C1820       C  0.90288192  0.60497975  0.06499432     0.22500
C1821       C  0.90418406  0.59876940  0.04576687    -0.33700
C1822       C  0.92385136  0.58315749  0.04093108     0.16600
O1823       O  0.95694758  0.55905388  0.04662278    -0.25700
C1824       C  0.94993185  0.55800339  0.02836194     0.06400
C1825       C  0.92949252  0.57269555  0.02390809    -0.30600
O1826       O  0.88513948  0.61830932  0.07260556    -0.22400
C1827       C  0.89095016  0.61814602  0.09094317    -0.02400
C1828       C  0.91265439  0.60485891  0.09537189    -0.16900
H1829       H  0.95309829  0.57372632  0.08383086     0.21100
H1830       H  0.89036852  0.60514571  0.03537398     0.19500
H1831       H  0.91970416  0.57467863  0.01027885     0.19400
H1832       H  0.92119222  0.60157419  0.10910692     0.15300
C1833       C  0.54620809  0.76047512  0.20551793     0.30700
C1834       C  0.51330696  0.73033185  0.20436669    -0.35600
C1835       C  0.98957953  0.73176447  0.19184474     0.16700
C1836       C  0.99742232  0.76111405  0.18143356     0.22500
C1837       C  0.53053668  0.79120363  0.18243439    -0.33700
C1838       C  0.55456435  0.78951994  0.19469889     0.16600
O1839       O  0.57184415  0.76507119  0.21674484    -0.25700
C1840       C  0.59724763  0.79725253  0.21287836     0.06400
C1841       C  0.58814170  0.81371473  0.19917422    -0.30600
O1842       O  0.97120834  0.75664859  0.17064930    -0.22400
C1843       C  0.94647282  0.72387888  0.17402262    -0.02400
C1844       C  0.95649205  0.70709796  0.18704644    -0.16900
H1845       H  0.50667869  0.70733380  0.21267356     0.21100
H1846       H  0.53713092  0.81425138  0.17418211     0.19500
H1847       H  0.60339606  0.84017142  0.19402100     0.19400
H1848       H  0.94167169  0.68050867  0.19206751     0.15300
C1849       C  0.71149034  0.95171050  0.20391415     0.30700
C1850       C  0.71223315  0.98346353  0.20146109    -0.35600
C1851       C  0.73858351  0.50769871  0.18966972     0.16700
C1852       C  0.76305895  0.50149829  0.18118236     0.22500
C1853       C  0.76192594  0.96941957  0.18337645    -0.33700
C1854       C  0.73511926  0.94486018  0.19491573     0.16600
O1855       O  0.68994711  0.92599184  0.21492484    -0.25700
C1856       C  0.69943590  0.90208644  0.21268822     0.06400
C1857       C  0.72722089  0.91217275  0.20033261    -0.30600
O1858       O  0.78584465  0.52828196  0.17108303    -0.22400
C1859       C  0.77552068  0.55170316  0.17299730    -0.02400
C1860       C  0.74616475  0.54023192  0.18432575    -0.16900
H1861       H  0.69367695  0.98896412  0.20836976     0.21100
H1862       H  0.78074196  0.96406916  0.17665770     0.19500
H1863       H  0.74061808  0.89814200  0.19665813     0.19400
H1864       H  0.73241710  0.55389788  0.18803820     0.15300
C1865       C  0.74096248  0.78885896  0.20430855     0.30700
C1866       C  0.77187909  0.78758238  0.20227758    -0.35600
C1867       C  0.77010695  0.76162330  0.19027783     0.16700
C1868       C  0.73981961  0.73815635  0.18116192     0.22500
C1869       C  0.70906855  0.73985682  0.18292293    -0.33700
C1870       C  0.71099678  0.76620678  0.19466927     0.16600
O1871       O  0.73631385  0.80992893  0.21548025    -0.25700
C1872       C  0.70315477  0.80109936  0.21269630     0.06400
C1873       C  0.68613319  0.77426838  0.19979589    -0.30600
O1874       O  0.74386364  0.71556931  0.17094507    -0.22400
C1875       C  0.77727849  0.72497248  0.17334226    -0.02400
C1876       C  0.79496906  0.75359609  0.18514414    -0.16900
H1877       H  0.79557018  0.80538458  0.20968191     0.21100
H1878       H  0.68524096  0.72175186  0.17572515     0.19500
H1879       H  0.65898094  0.76144318  0.19561574     0.19400
H1880       H  0.82214456  0.76655548  0.18928859     0.15300
C1881       C  0.73868281  0.95153959  0.26368534     0.30700
C1882       C  0.77030454  0.98229975  0.26708470    -0.35600
C1883       C  0.76814571  0.50780581  0.27774801     0.16700
C1884       C  0.73700022  0.50335981  0.28465955     0.22500
C1885       C  0.70532310  0.97247259  0.28132544    -0.33700
C1886       C  0.70752702  0.94676328  0.27080471     0.16600
O1887       O  0.73463881  0.92487118  0.25352937    -0.25700
C1888       C  0.70055883  0.90238483  0.25444151     0.06400
C1889       C  0.68231215  0.91449023  0.26501023    -0.30600
O1890       O  0.74117840  0.53055171  0.29444376    -0.22400
C1891       C  0.77549437  0.55254738  0.29393185    -0.02400
C1892       C  0.79355008  0.53967586  0.28377980    -0.16900
H1893       H  0.79489827  0.98615651  0.26169065     0.21100
H1894       H  0.68071044  0.96865458  0.28666271     0.19500
H1895       H  0.65443352  0.90194531  0.26735799     0.19400
H1896       H  0.82139236  0.55190991  0.28136956     0.15300
C1897       C  0.99782522  0.73572875  0.28581161     0.30700
C1898       C  0.53040801  0.73767183  0.28415555    -0.35600
C1899       C  0.55482766  0.76415555  0.27243907     0.16700
C1900       C  0.54739568  0.78670498  0.26274004     0.22500
C1901       C  0.51504652  0.78511582  0.26460964    -0.33700
C1902       C  0.99086745  0.75902357  0.27656767     0.16600
O1903       O  0.97131092  0.71328425  0.29618086    -0.25700
C1904       C  0.94724633  0.72261667  0.29373036     0.06400
C1905       C  0.95800700  0.75098601  0.28171601    -0.30600
O1906       O  0.57318391  0.80802222  0.25167308    -0.22400
C1907       C  0.59766512  0.79943467  0.25456982    -0.02400
C1908       C  0.58789940  0.77251641  0.26743902    -0.16900
H1909       H  0.53627282  0.71974930  0.29145900     0.21100
H1910       H  0.50908658  0.80285189  0.25717297     0.19500
H1911       H  0.94380772  0.76397792  0.27757650     0.19400
H1912       H  0.60233940  0.75981688  0.27165688     0.15300
C1913       C  0.73937388  0.79146947  0.26732974     0.30700
C1914       C  0.77060241  0.79586123  0.27495800    -0.35600
C1915       C  0.76961539  0.76556321  0.28167419     0.16700
C1916       C  0.73995674  0.73313742  0.28095815     0.22500
C1917       C  0.70876159  0.72871244  0.27324075    -0.33700
C1918       C  0.70972518  0.75901909  0.26654704     0.16800
O1919       O  0.73462023  0.81611093  0.25988945    -0.25700
C1920       C  0.70143227  0.79923235  0.25443084     0.06400
C1921       C  0.68469129  0.76367978  0.25809422    -0.30600
O1922       O  0.74473408  0.70850844  0.28841498    -0.22400
C1923       C  0.77794638  0.72534685  0.29391247    -0.02400
C1924       C  0.79470706  0.76090760  0.29004065    -0.16900
H1925       H  0.79404271  0.82113353  0.27559814     0.21100
H1926       H  0.68535053  0.70342221  0.27254582     0.19500
H1927       H  0.65827326  0.74408263  0.25449852     0.19400
H1928       H  0.82127347  0.78056351  0.29331762     0.15300
C1929       C  0.70219761  0.60568920  0.40321429     0.30700
C1930       C  0.69459804  0.60087091  0.42250626    -0.35600
C1931       C  0.65914345  0.58315102  0.42720919     0.16700
C1932       C  0.63312314  0.57115458  0.41379554     0.22500
C1933       C  0.64072671  0.57600790  0.39451137    -0.33700
C1934       C  0.67616308  0.59365500  0.38980816     0.16600
O1935       O  0.73349452  0.62085395  0.39570006    -0.25700
C1936       C  0.72747469  0.61846464  0.37727416     0.06400
C1937       C  0.69227243  0.60187163  0.37270652    -0.30600
O1938       O  0.60179607  0.55514055  0.42127120    -0.22400
C1939       C  0.60773915  0.55688104  0.43969040    -0.02400
C1940       C  0.64296077  0.57397808  0.44428796    -0.16900
H1941       H  0.71489961  0.61005763  0.43307273     0.21100
H1942       H  0.62042481  0.56647028  0.38393600     0.19500
H1943       H  0.68039474  0.59625786  0.35889270     0.19400
H1944       H  0.65479094  0.57882786  0.45809978     0.15300
C1945       C  0.91508534  0.82228573  0.38941124     0.30700
C1946       C  0.93282400  0.85833164  0.39240366    -0.35600
C1947       C  0.93824266  0.86899375  0.41126581     0.16700
C1948       C  0.92704170  0.84597010  0.42622728     0.22500
C1949       C  0.90933230  0.80994209  0.42323999    -0.33700
C1950       C  0.90395353  0.79929307  0.40438532     0.16600
O1951       O  0.90683616  0.80636113  0.37293927    -0.25700
C1952       C  0.89027759  0.77277711  0.37753153     0.06400
C1953       C  0.88777051  0.76694043  0.39686279    -0.30600
O1954       O  0.93471575  0.86183578  0.44270064    -0.22400
C1955       C  0.95103569  0.89542496  0.43814285    -0.02400
C1956       C  0.95397746  0.90135138  0.41882074    -0.16900
H1957       H  0.94166150  0.87676450  0.38086707     0.21100
H1958       H  0.90027061  0.79150701  0.43477863     0.19500
H1959       H  0.87548347  0.74229892  0.40430031     0.19400
H1960       H  0.96585184  0.92602413  0.41142103     0.15300
C1961       C  0.92874435  0.56164007  0.41442129     0.30700
C1962       C  0.92436532  0.56470326  0.39510478    -0.35600
C1963       C  0.90663127  0.58237759  0.39030231     0.16700
C1964       C  0.89396986  0.59589189  0.40364804     0.22500
C1965       C  0.89815141  0.59263063  0.42298913    -0.33700
C1966       C  0.91607219  0.57509446  0.42779627     0.16600
O1967       O  0.94532204  0.54693424  0.42193963    -0.25700
C1968       C  0.94335183  0.55095518  0.44036773     0.06400
C1969       C  0.92535969  0.56826063  0.44492412    -0.30600
O1970       O  0.87900581  0.61217405  0.39604023    -0.22400
C1971       C  0.88212152  0.60910069  0.37760947    -0.02400
C1972       C  0.89904149  0.59073448  0.37314557    -0.16900
H1973       H  0.93452899  0.55446051  0.38457599     0.21100
H1974       H  0.88855867  0.60344529  0.43350875     0.19500
H1975       H  0.92023941  0.57505980  0.45872075     0.19400
H1976       H  0.90524655  0.58489983  0.35936736     0.15300
C1977       C  0.60533082  0.69833078  0.90358277     0.30700
C1978       C  0.60907920  0.68769546  0.92152700    -0.35600
C1979       C  0.58281424  0.65466090  0.92709125     0.16700
C1980       C  0.55434716  0.63373327  0.91594926     0.22500
C1981       C  0.55086662  0.64417739  0.89780254    -0.33700
C1982       C  0.57761871  0.67706660  0.89206578     0.16600
O1983       O  0.62658541  0.72852609  0.89580020    -0.25700
C1984       C  0.61277059  0.72642917  0.87894775     0.06400
C1985       C  0.58235626  0.69497766  0.87570883    -0.30600
O1986       O  0.53277403  0.60393742  0.92418679    -0.22400
C1987       C  0.54805089  0.60585624  0.94061499    -0.02400
C1988       C  0.57930463  0.63662661  0.94315024    -0.16900
H1989       H  0.63099663  0.70403271  0.93050488     0.21100
H1990       H  0.52899027  0.62782039  0.88880585     0.19500
H1991       H  0.56568386  0.68707201  0.86342212     0.19400
H1992       H  0.59686349  0.64440713  0.95506034     0.15300
C1993       C  0.80433198  0.91268880  0.90154562     0.30700
C1994       C  0.81668846  0.93130163  0.91834063    -0.35600
C1995       C  0.84761554  0.93431216  0.92529847     0.16700
C1996       C  0.86501123  0.91956799  0.91653025     0.22500
C1997       C  0.85300063  0.90149830  0.89944996    -0.33700
C1998       C  0.82223761  0.89896659  0.89229024     0.16600
O1999       O  0.77514445  0.90558479  0.89305260    -0.25700
C2000       C  0.77462676  0.88777417  0.87792188     0.06400
C2001       C  0.80331021  0.88293756  0.87657243    -0.30600
O2002       O  0.89311997  0.92513790  0.92585074    -0.22400
C2003       C  0.89372665  0.94396922  0.94058843    -0.02400
C2004       C  0.86625964  0.95069481  0.94089412    -0.16900
H2005       H  0.80296588  0.94241750  0.92556117     0.21100
H2006       H  0.86655337  0.89011292  0.89231846     0.19500
H2007       H  0.80851340  0.86840249  0.86607447     0.19400
H2008       H  0.86095160  0.96560449  0.95110234     0.15300
C2009       C  0.58236380  0.94639547  0.91848424     0.30700
C2010       C  0.59985966  0.95190758  0.90123973    -0.35600
C2011       C  0.60162448  0.92334142  0.89404330     0.16700
C2012       C  0.58799670  0.89193619  0.90347027     0.22500
C2013       C  0.57018097  0.88630767  0.92055782    -0.33700
C2014       C  0.56767836  0.91452137  0.92749601     0.16600
O2015       O  0.57642338  0.96896367  0.92745122    -0.25700
C2016       C  0.55731433  0.95104138  0.94218865     0.06400
C2017       C  0.55097373  0.91705014  0.94293085    -0.30600
O2018       O  0.59409744  0.86935942  0.89471376    -0.22400
C2019       C  0.61108409  0.88614960  0.87924804    -0.02400
C2020       C  0.61640049  0.91978737  0.87797036    -0.16900
H2021       H  0.61094462  0.97656511  0.89386407     0.21100
H2022       H  0.55885980  0.86156685  0.92786681     0.19500
H2023       H  0.53565868  0.89698349  0.95314003     0.19400
H2024       H  0.63053711  0.93922255  0.86726262     0.15300
C2025       C  0.94408456  0.71204932  0.77495098     0.30700
C2026       C  0.96705105  0.70776607  0.78674700    -0.35600
C2027       C  0.49991661  0.73734875  0.78935438     0.16700
C2028       C  0.50936651  0.76925763  0.78131280     0.22500
C2029       C  0.98645807  0.77350569  0.76940278    -0.33700
C2030       C  0.95378251  0.74372403  0.76651385     0.16600
O2031       O  0.91286689  0.68731869  0.76966981    -0.25700
C2032       C  0.90265889  0.70330441  0.75755286     0.06400
C2033       C  0.92689179  0.73843203  0.75511087    -0.30600
O2034       O  0.54117466  0.79358284  0.78609568    -0.22400
C2035       C  0.55236750  0.77675337  0.79702074    -0.02400
C2036       C  0.52787471  0.74172192  0.79946371    -0.16900
H2037       H  0.46005039  0.68291801  0.79313305     0.21100
H2038       H  0.99376625  0.79813758  0.76265278     0.19500
H2039       H  0.92546521  0.75682870  0.74563136     0.19400
H2040       H  0.53003130  0.72256894  0.80795293     0.15300
C2041       C  0.76829827  0.55664009  0.77590367     0.30700
C2042       C  0.73935610  0.53292841  0.78653277    -0.35600
C2043       C  0.73662426  0.00042759  0.78982997     0.16700
C2044       C  0.76092722  0.99195881  0.78337769     0.22500
C2045       C  0.78971799  0.51557405  0.77265127    -0.33700
C2046       C  0.79227257  0.54792820  0.76917496     0.16600
O2047       O  0.77469310  0.58754432  0.77002768    -0.25700
C2048       C  0.80295655  0.59856780  0.75932495     0.06400
C2049       C  0.81517675  0.57514547  0.75836450    -0.30600
O2050       O  0.75355859  0.96033998  0.78842619    -0.22400
C2051       C  0.72387228  0.94822946  0.79798657    -0.02400
C2052       C  0.71201264  0.97195580  0.79923536    -0.16900
H2053       H  0.71996650  0.53913596  0.79155573     0.21100
H2054       H  0.80855532  0.50899067  0.76716531     0.19500
H2055       H  0.83650414  0.57706625  0.74995948     0.19400
H2056       H  0.68915060  0.96898511  0.80650899     0.15300
C2057       C  0.79083841  0.73917452  0.76903336     0.30700
C2058       C  0.79166034  0.77073483  0.77261229    -0.35600
C2059       C  0.76276246  0.76823457  0.78221934     0.16700
C2060       C  0.73482573  0.73683503  0.78786456     0.22500
C2061       C  0.73421321  0.70525743  0.78449286    -0.33700
C2062       C  0.76325477  0.70776180  0.77498715     0.16600
O2063       O  0.81393918  0.73531103  0.75914407    -0.25700
C2064       C  0.80124190  0.70102572  0.75897705     0.06400
C2065       C  0.76992830  0.68255205  0.76870808    -0.30600
O2066       O  0.71051496  0.74065236  0.79656898    -0.22400
C2067       C  0.72313867  0.77497838  0.79657337    -0.02400
C2068       C  0.75559900  0.79339260  0.78785507    -0.16900
H2069       H  0.81309895  0.79549976  0.76795064     0.21100
H2070       H  0.71242878  0.68042772  0.78879359     0.19500
H2071       H  0.75345131  0.65456719  0.76987470     0.19400
H2072       H  0.77180983  0.82132498  0.78620149     0.15300
C2073       C  0.94183823  0.72520495  0.69536349     0.30700
C2074       C  0.96130975  0.74690958  0.68031724    -0.35600
C2075       C  0.49677930  0.75629686  0.67951988     0.16700
C2076       C  0.51229177  0.74544816  0.69268685     0.22500
C2077       C  0.99267057  0.72318721  0.70749304    -0.33700
C2078       C  0.95716638  0.71355765  0.70817037     0.16600
O2079       O  0.90883720  0.71492663  0.69956026    -0.25700
C2080       C  0.90294644  0.69644894  0.71532761     0.06400
C2081       C  0.93197358  0.69408120  0.72094152    -0.30600
O2082       O  0.54597057  0.75786918  0.68937422    -0.22400
C2083       C  0.55204230  0.77664676  0.67372289    -0.02400
C2084       C  0.52231821  0.77640585  0.66696939    -0.16900
H2085       H  0.94976901  0.75627818  0.67009489     0.21100
H2086       H  0.00435084  0.71432894  0.71792271     0.19500
H2087       H  0.93468770  0.68108494  0.73318487     0.19400
H2088       H  0.51990165  0.78909168  0.65449506     0.15300
C2089       C  0.73741347  0.98505260  0.69550775     0.30700
C2090       C  0.73492265  0.50458790  0.71039781    -0.35600
C2091       C  0.76032257  0.54016344  0.71079195     0.16700
C2092       C  0.78679165  0.55562027  0.69770205     0.22500
C2093       C  0.78903727  0.53619061  0.68267883    -0.33700
C2094       C  0.76334554  0.00067926  0.68210781     0.16600
O2095       O  0.71577310  0.95161159  0.69202171    -0.25700
C2096       C  0.72784478  0.94583627  0.67604805     0.06400
C2097       C  0.75733521  0.97547355  0.66928684    -0.30600
O2098       O  0.80861690  0.58897026  0.70136196    -0.22400
C2099       C  0.79594561  0.59497729  0.71705879    -0.02400
C2100       C  0.76539079  0.56561024  0.72317991    -0.16900
H2101       H  0.71458820  0.99289680  0.72092596     0.21100
H2102       H  0.80936021  0.54791623  0.67213202     0.19500
H2103       H  0.77171964  0.97820607  0.65645897     0.19400
H2104       H  0.74948597  0.56299147  0.73531255     0.15300
C2105       C  0.75436059  0.75280035  0.68046562     0.30700
C2106       C  0.77694456  0.73914707  0.67851759    -0.35600
C2107       C  0.78233071  0.72428829  0.69474094     0.16700
C2108       C  0.76648667  0.72301981  0.71165001     0.22500
C2109       C  0.74410307  0.73686277  0.71366323    -0.33700
C2110       C  0.73879428  0.75181536  0.69745980     0.16600
O2111       O  0.74535262  0.76736682  0.66704437    -0.25700
C2112       C  0.72390711  0.77616265  0.67548441     0.06400
C2113       C  0.71891588  0.76719205  0.69449553    -0.30600
O2114       O  0.77532972  0.70833357  0.72502031    -0.22400
C2115       C  0.79740078  0.70012644  0.71679195    -0.02400
C2116       C  0.80257593  0.70932037  0.69781056    -0.16900
H2117       H  0.78941027  0.74003459  0.66525741     0.21100
H2118       H  0.73179202  0.73609502  0.72696575     0.19500
H2119       H  0.70262938  0.77090100  0.70453066     0.19400
H2120       H  0.81937471  0.70626648  0.68785123     0.15300
C2121       C  0.60962793  0.68888199  0.57211653     0.30700
C2122       C  0.61572480  0.66543616  0.56178546    -0.35600
C2123       C  0.58901843  0.64333855  0.54945430     0.16700
C2124       C  0.55833325  0.64409067  0.54748516     0.22500
C2125       C  0.55221617  0.66747376  0.55784594    -0.33700
C2126       C  0.57895478  0.68964467  0.57011886     0.16600
O2127       O  0.63125092  0.71231675  0.58420642    -0.25700
C2128       C  0.61412154  0.72818673  0.59006777     0.06400
C2129       C  0.58147717  0.71517805  0.58175766    -0.30600
O2130       O  0.53691695  0.62109038  0.53515939    -0.22400
C2131       C  0.55419199  0.60553537  0.52905781    -0.02400
C2132       C  0.58672906  0.61828263  0.53749654    -0.16900
H2133       H  0.63970858  0.66463790  0.56316939     0.21100
H2134       H  0.52832778  0.66842668  0.55637603     0.19500
H2135       H  0.56258757  0.72365735  0.58381321     0.19400
H2136       H  0.60576213  0.61004829  0.53524997     0.15300
C2137       C  0.85703878  0.94075847  0.54666409     0.30700
C2138       C  0.83610259  0.94826819  0.55833778    -0.35600
C2139       C  0.81373951  0.92154061  0.57054242     0.16700
C2140       C  0.81201815  0.88955702  0.57124632     0.22500
C2141       C  0.83305157  0.88205468  0.55958112    -0.33700
C2142       C  0.85540272  0.90880768  0.54732484     0.16600
O2143       O  0.88027772  0.96223276  0.53446795    -0.25700
C2144       C  0.89367516  0.94381628  0.52716407     0.06400
C2145       C  0.87914702  0.91033608  0.53458845    -0.30600
O2146       O  0.78849099  0.86810081  0.58338133    -0.22400
C2147       C  0.77506534  0.88665903  0.59052396    -0.02400
C2148       C  0.78987403  0.92011894  0.58309941    -0.16900
H2149       H  0.83715316  0.97322327  0.55791700     0.21100
H2150       H  0.83195062  0.85707577  0.55997160     0.19500
H2151       H  0.88581642  0.89044289  0.53143326     0.19400
H2152       H  0.78330816  0.94012363  0.58614839     0.15300
C2153       C  0.58321567  0.89300284  0.57121617     0.30700
C2154       C  0.55615996  0.88434671  0.55828351    -0.35600
C2155       C  0.55959968  0.91152065  0.54671652     0.16700
C2156       C  0.58768486  0.94495439  0.54782529     0.22500
C2157       C  0.61470815  0.95364083  0.56080772    -0.33700
C2158       C  0.61131667  0.92642438  0.57235725     0.16600
O2159       O  0.58592824  0.87133031  0.58286185    -0.25700
C2160       C  0.61617571  0.89104070  0.59157334     0.06400
C2161       C  0.63308168  0.92562592  0.58567541    -0.30600
O2162       O  0.58521569  0.96643194  0.53590027    -0.22400
C2163       C  0.55516329  0.94649672  0.52705672    -0.02400
C2164       C  0.53812435  0.91206075  0.53317519    -0.16900
H2165       H  0.53407899  0.85817831  0.55723046     0.21100
H2166       H  0.63689351  0.97975825  0.56177668     0.19500
H2167       H  0.65824211  0.94673134  0.59007987     0.19400
H2168       H  0.51313229  0.89081105  0.52866179     0.15300
loop_ 
_geom_bond_atom_site_label_1 
_geom_bond_atom_site_label_2 
_geom_bond_distance 
_geom_bond_site_symmetry_2 
_ccdc_geom_bond_type 
Zn1           O5   1.957       .  S
Zn1           O6   2.004       .  S
Zn1          O10   2.011       .  S
Zn1          O17   2.003       .  S
Zn2           O5   1.990       .  S
Zn2           O7   2.081       .  S
Zn2           O9   2.081       .  S
Zn2          O13   2.088       .  S
Zn3           O5   1.966       .  S
Zn3           O8   2.020       .  S
Zn3          O11   2.005       .  S
Zn3          O14   2.016       .  S
Zn4           O5   1.961       .  S
Zn4          O12   2.008       .  S
Zn4          O15   1.992       .  S
Zn4          O16   2.027       .  S
O6           C18   1.272       .  A
O7           C19   1.281       .  A
O8           C20   1.272       .  A
O9           C18   1.281       .  A
O10          C20   1.272       .  A
O11          C19   1.272       .  A
O12          C21   1.271       .  A
O13          C22   1.282       .  A
O14          C21   1.271       .  A
O15          C22   1.272       .  A
O16          C23   1.273       .  A
O17          C23   1.270       .  A
C18         C457   1.481       .  S
C19         C486   1.480       .  S
C20         C502   1.470       .  S
C21         C521   1.468       .  S
C22         C470   1.479       .  S
C23         C534   1.469       .  S
C24          H25   1.110       .  S
C24          C30   1.557       .  S
C24          C29   1.550       .  S
C24          C28   1.551       .  S
C26          H27   1.112       .  S
C26          C32   1.529       .  S
C26          C31   1.527       .  S
C26          C33   1.526       .  S
C28          C31   1.376       .  D
C28         C473   1.496       .  S
C29          C32   1.376       .  D
C29         C454   1.498       .  S
C30          C33   1.377       .  D
C30         C489   1.496       .  S
C31         C422   1.473       .  S
C32         C406   1.473       .  S
C33         C438   1.476       .  S
Zn34         O38   1.941       .  S
Zn34         O39   1.978       .  S
Zn34         O43   1.988       .  S
Zn34         O50   1.982       .  S
Zn35         O38   1.960       .  S
Zn35         O40   2.007       .  S
Zn35         O42   2.015       .  S
Zn35         O46   2.043       .  S
Zn36         O38   1.964       .  S
Zn36         O41   2.033       .  S
Zn36         O44   2.030       .  S
Zn36         O47   2.003       .  S
Zn37         O38   1.961       .  S
Zn37         O45   2.028       .  S
Zn37         O48   2.017       .  S
Zn37         O49   2.030       .  S
O39          C51   1.268       .  A
O40          C52   1.274       .  A
O41          C53   1.272       .  A
O42          C51   1.271       .  A
O43          C53   1.267       .  A
O44          C52   1.275       .  A
O45          C54   1.275       .  A
O46          C55   1.276       .  A
O47          C54   1.273       .  A
O48          C55   1.274       .  A
O49          C56   1.273       .  A
O50          C56   1.268       .  A
C51         C358   1.456       .  S
C52         C409   1.466       .  S
C53         C393   1.461       .  S
C54         C425   1.467       .  S
C55         C441   1.476       .  S
C56         C374   1.459       .  S
Zn57         O61   1.969       .  S
Zn57         O62   2.035       .  S
Zn57         O66   2.034       .  S
Zn57         O73   2.037       .  S
Zn58         O61   1.967       .  S
Zn58         O63   2.029       .  S
Zn58         O65   2.034       .  S
Zn58         O69   2.046       .  S
Zn59         O61   1.969       .  S
Zn59         O64   2.021       .  S
Zn59         O67   2.023       .  S
Zn59         O70   2.052       .  S
Zn60         O61   1.929       .  S
Zn60         O68   1.951       .  S
Zn60         O71   1.958       .  S
Zn60         O72   1.954       .  S
O62          C74   1.276       .  A
O63          C75   1.275       .  A
O64          C76   1.275       .  A
O65          C74   1.277       .  A
O66          C76   1.276       .  A
O67          C75   1.275       .  A
O68          C77   1.264       .  A
O69          C78   1.275       .  A
O70          C77   1.274       .  A
O71          C78   1.264       .  A
O72          C79   1.264       .  A
O73          C79   1.274       .  A
C74         C265   1.476       .  S
C75         C278   1.469       .  S
C76         C297   1.474       .  S
C77         C326   1.465       .  S
C78         C345   1.463       .  S
C79         C310   1.459       .  S
C80          H81   1.111       .  S
C80          C86   1.535       .  S
C80          C85   1.537       .  S
C80          C84   1.538       .  S
C82          H83   1.111       .  S
C82          C88   1.537       .  S
C82          C87   1.535       .  S
C82          C89   1.538       .  S
C84          C87   1.371       .  D
C84         C214   1.478       .  S
C85          C88   1.370       .  D
C85         C246   1.474       .  S
C86          C89   1.370       .  D
C86         C230   1.471       .  S
C87         C281   1.473       .  S
C88         C294   1.474       .  S
C89         C262   1.476       .  S
Zn90         O94   1.963       .  S
Zn90         O95   2.026       .  S
Zn90         O99   2.036       .  S
Zn90        O106   2.021       .  S
Zn91         O94   1.964       .  S
Zn91         O96   2.043       .  S
Zn91         O98   2.022       .  S
Zn91        O102   2.026       .  S
Zn92         O94   1.926       .  S
Zn92         O97   1.958       .  S
Zn92        O100   1.957       .  S
Zn92        O103   1.954       .  S
Zn93         O94   1.966       .  S
Zn93        O101   2.037       .  S
Zn93        O104   2.024       .  S
Zn93        O105   2.031       .  S
O95         C107   1.276       .  A
O96         C108   1.273       .  A
O97         C109   1.265       .  A
O98         C107   1.275       .  A
O99         C109   1.273       .  A
O100        C108   1.264       .  A
O101        C110   1.273       .  A
O102        C111   1.276       .  A
O103        C110   1.264       .  A
O104        C111   1.275       .  A
O105        C112   1.276       .  A
O106        C112   1.274       .  A
C107        C249   1.469       .  S
C108        C169   1.461       .  S
C109        C185   1.462       .  S
C110        C201   1.459       .  S
C111        C233   1.469       .  S
C112        C217   1.470       .  S
Zn113       O117   1.914   1_554  S
Zn113       O122   1.952   1_655  S
Zn113      O1202   1.956       .  S
Zn113      O1755   1.955   1_545  S
Zn114      O1201   1.953       .  S
Zn114       O121   2.036       .  S
Zn114      O1203   2.012       .  S
Zn114       O667   1.997   1_545  S
Zn115       O117   1.955   1_455  S
Zn115       O120   2.033       .  S
Zn115       O123   2.002       .  S
Zn115       O668   2.010   1_545  S
Zn116      O1743   1.955       .  S
Zn116       O127   2.022       .  S
Zn116       O128   2.044       .  S
Zn116      O1208   2.002       .  S
O117      Zn1198   1.953       .  S
O117      Zn1742   1.955   1_545  S
O118      Zn1197   1.956       .  S
O118        C130   1.265       .  A
O119      Zn1198   2.012   1_455  S
O119        C131   1.271       .  A
O120        C132   1.274   1_556  A
O121        C130   1.274   1_556  A
O122        C132   1.264       .  A
O123        C131   1.272       .  A
O124      Zn1200   2.002   1_455  S
O124        C133   1.273       .  A
O125       Zn656   1.996       .  S
O125        C134   1.272       .  A
O126       Zn657   2.010       .  S
O126        C133   1.272       .  A
O127        C134   1.273       .  A
O128        C135   1.275   1_556  A
O129      Zn1739   1.954       .  S
O129        C135   1.265       .  A
C130        C198   1.458       .  S
C131        C361   1.457       .  S
C132        C166   1.458       .  S
C133        C390   1.459       .  S
C134        C377   1.461       .  S
C135        C182   1.463       .  S
Zn136       O682   1.964       .  S
Zn136       O145   2.013       .  S
Zn136       O152   2.039       .  S
Zn136       O683   2.012   1_545  S
Zn137      O1224   1.969       .  S
Zn137       O142   2.013       .  S
Zn137       O148   2.041       .  S
Zn137      O1228   2.015       .  S
Zn138      O1766   1.969       .  S
Zn138       O149   2.052       .  S
Zn138      O1227   2.031       .  S
Zn138       O688   2.015   1_545  S
Zn139       O140   1.924       .  S
Zn139      O1773   1.964   1_455  S
Zn139      O1234   1.962   1_455  S
Zn139       O693   1.963       .  S
O140       Zn678   1.964       .  S
O140      Zn1221   1.969   1_455  S
O140      Zn1764   1.969   1_455  S
O141       Zn678   2.012       .  S
O141        C153   1.272       .  A
O142        C154   1.274       .  A
O143      Zn1222   2.031   1_455  S
O143        C155   1.275       .  A
O144      Zn1221   2.015   1_455  S
O144        C153   1.274       .  A
O145        C155   1.274       .  A
O146       Zn680   2.015       .  S
O146        C154   1.274       .  A
O147      Zn1765   1.964       .  S
O147        C156   1.266       .  A
O148        C157   1.274       .  A
O149        C156   1.276       .  A
O150      Zn1223   1.962       .  S
O150        C157   1.266       .  A
O151       Zn681   1.963       .  S
O151        C158   1.266       .  A
O152        C158   1.275       .  A
C153        C537   1.467       .  S
C154        C518   1.466       .  S
C155        C505   1.471       .  S
C156        C342   1.465       .  S
C157        C329   1.464       .  S
C158        C313   1.461       .  S
C159        C164   1.380       .  A
C159        C160   1.402       .  A
C159        O165   1.312       .  A
C160        C161   1.399       .  A
C160        H171   1.082       .  S
C161        C170   1.364       .  A
C161        C162   1.381       .  A
C162        C163   1.401       .  A
C162        O168   1.311       .  A
C163        C164   1.397       .  A
C163        H172   1.082       .  S
C164        C167   1.362       .  A
O165        C166   1.330       .  A
C166        C167   1.388       .  A
C167        H173   1.082       .  S
O168        C169   1.329       .  A
C169        C170   1.390       .  A
C170        H174   1.082       .  S
C175        C180   1.382       .  A
C175        C176   1.399       .  A
C175        O181   1.320       .  A
C176        C177   1.401       .  A
C176        H187   1.082       .  S
C177        C186   1.353       .  A
C177        C178   1.382       .  A
C178        C179   1.399       .  A
C178        O184   1.319       .  A
C179        C180   1.400       .  A
C179        H188   1.082       .  S
C180        C183   1.352       .  A
O181        C182   1.328       .  A
C182        C183   1.391       .  A
C183        H189   1.083       .  S
O184        C185   1.328       .  A
C185        C186   1.391       .  A
C186        H190   1.083       .  S
C191        C196   1.381       .  A
C191        C192   1.402       .  A
C191        O197   1.312       .  A
C192        C193   1.398       .  A
C192        H203   1.082       .  S
C193        C202   1.363       .  A
C193        C194   1.381       .  A
C194        C195   1.400       .  A
C194        O200   1.311       .  A
C195        C196   1.397       .  A
C195        H204   1.082       .  S
C196        C199   1.362       .  A
O197        C198   1.330       .  A
C198        C199   1.388       .  A
C199        H205   1.082       .  S
O200        C201   1.329       .  A
C201        C202   1.389       .  A
C202        H206   1.082       .  S
C207        C212   1.380       .  A
C207        C208   1.403       .  A
C207        O213   1.317       .  A
C208       C1293   1.401   1_455  A
C208        H219   1.083       .  S
C209        C218   1.362       .  A
C209        C210   1.380       .  A
C209       C1292   1.401       .  A
C210       C1295   1.406       .  A
C210        O216   1.320       .  A
C211        C212   1.405       .  A
C211       C1294   1.406   1_455  A
C211        H220   1.083       .  S
C212        C215   1.366       .  A
O213        C214   1.330       .  A
C214        C215   1.391       .  A
C215        H221   1.083       .  S
O216        C217   1.332       .  A
C217        C218   1.390       .  A
C218        H222   1.083       .  S
C223        C228   1.381       .  A
C223        C224   1.401       .  A
C223        O229   1.316       .  A
C224        C767   1.400       .  A
C224        H235   1.083       .  S
C225        C234   1.360       .  A
C225        C226   1.380       .  A
C225        C766   1.400   1_545  A
C226        C769   1.405   1_545  A
C226        O232   1.320       .  A
C227        C228   1.404       .  A
C227        C768   1.405       .  A
C227        H236   1.083       .  S
C228        C231   1.364       .  A
O229        C230   1.328       .  A
C230        C231   1.389       .  A
C231        H237   1.083       .  S
O232        C233   1.332       .  A
C233        C234   1.389       .  A
C234        H238   1.083       .  S
C239        C244   1.381       .  A
C239        C240   1.403       .  A
C239        O245   1.317       .  A
C240        C241   1.402       .  A
C240        H251   1.083       .  S
C241        C250   1.363       .  A
C241        C242   1.381       .  A
C242        C243   1.404       .  A
C242        O248   1.319       .  A
C243        C244   1.403       .  A
C243        H252   1.083       .  S
C244        C247   1.364       .  A
O245        C246   1.330       .  A
C246        C247   1.389       .  A
C247        H253   1.083       .  S
O248        C249   1.331       .  A
C249        C250   1.391       .  A
C250        H254   1.083       .  S
C255        C260   1.381       .  A
C255        C256   1.403       .  A
C255        O261   1.318       .  A
C256        C799   1.402       .  A
C256        H267   1.083       .  S
C257        C266   1.363       .  A
C257        C258   1.380       .  A
C257        C798   1.402   1_545  A
C258        C801   1.407   1_545  A
C258        O264   1.322       .  A
C259        C260   1.406       .  A
C259        C800   1.407       .  A
C259        H268   1.083       .  S
C260        C263   1.366       .  A
O261        C262   1.330       .  A
C262        C263   1.390       .  A
C263        H269   1.083       .  S
O264        C265   1.333       .  A
C265        C266   1.391       .  A
C266        H270   1.083       .  S
C271        C276   1.380       .  A
C271       C1356   1.404       .  A
C271        O277   1.319       .  A
C272        C273   1.403       .  A
C272       C1355   1.404   1_455  A
C272        H283   1.082       .  S
C273        C282   1.364       .  A
C273        C274   1.381       .  A
C274        C275   1.403       .  A
C274        O280   1.317       .  A
C275       C1360   1.402   1_455  A
C275        H284   1.082       .  S
C276        C279   1.362       .  A
C276       C1359   1.402       .  A
O277        C278   1.331       .  A
C278        C279   1.391       .  A
C279        H285   1.082       .  S
O280        C281   1.330       .  A
C281        C282   1.388       .  A
C282        H286   1.082       .  S
C287        C292   1.381       .  A
C287        C288   1.404       .  A
C287        O293   1.320       .  A
C288        C289   1.404       .  A
C288        H299   1.082       .  S
C289        C298   1.362       .  A
C289        C290   1.380       .  A
C290        C291   1.404       .  A
C290        O296   1.320       .  A
C291        C292   1.404       .  A
C291        H300   1.082       .  S
C292        C295   1.362       .  A
O293        C294   1.330       .  A
C294        C295   1.389       .  A
C295        H301   1.082       .  S
O296        C297   1.332       .  A
C297        C298   1.392       .  A
C298        H302   1.082       .  S
C303        C308   1.381       .  A
C303        C304   1.402       .  A
C303        O309   1.312       .  A
C304        C305   1.399       .  A
C304        H315   1.082       .  S
C305        C314   1.363       .  A
C305        C306   1.381       .  A
C306        C307   1.401       .  A
C306        O312   1.312       .  A
C307        C308   1.398       .  A
C307        H316   1.082       .  S
C308        C311   1.362       .  A
O309        C310   1.330       .  A
C310        C311   1.388       .  A
C311        H317   1.082       .  S
O312        C313   1.330       .  A
C313        C314   1.389       .  A
C314        H318   1.082       .  S
C319        C324   1.381       .  A
C319        C320   1.400       .  A
C319        O325   1.321       .  A
C320        C321   1.402       .  A
C320        H331   1.082       .  S
C321        C330   1.353       .  A
C321        C322   1.382       .  A
C322        C323   1.399       .  A
C322        O328   1.320       .  A
C323        C324   1.401       .  A
C323        H332   1.082       .  S
C324        C327   1.352       .  A
O325        C326   1.329       .  A
C326        C327   1.392       .  A
C327        H333   1.083       .  S
O328        C329   1.329       .  A
C329        C330   1.391       .  A
C330        H334   1.083       .  S
C335        C340   1.380       .  A
C335        C336   1.402       .  A
C335        O341   1.312       .  A
C336        C337   1.398       .  A
C336        H347   1.082       .  S
C337        C346   1.363       .  A
C337        C338   1.380       .  A
C338        C339   1.404       .  A
C338        O344   1.314       .  A
C339        C340   1.400       .  A
C339        H348   1.082       .  S
C340        C343   1.366       .  A
O341        C342   1.330       .  A
C342        C343   1.390       .  A
C343        H349   1.082       .  S
O344        C345   1.331       .  A
C345        C346   1.389       .  A
C346        H350   1.082       .  S
C351        C356   1.381       .  A
C351        C352   1.397       .  A
C351        O357   1.312       .  A
C352        C353   1.396       .  A
C352        H363   1.082       .  S
C353        C362   1.356       .  A
C353        C354   1.381       .  A
C354        C355   1.404       .  A
C354        O360   1.317       .  A
C355        C356   1.402       .  A
C355        H364   1.082       .  S
C356        C359   1.362       .  A
O357        C358   1.327       .  A
C358        C359   1.390       .  A
C359        H365   1.082       .  S
O360        C361   1.330       .  A
C361        C362   1.386       .  A
C362        H366   1.082       .  S
C367        C372   1.381       .  A
C367        C368   1.398       .  A
C367        O373   1.313       .  A
C368        C369   1.397       .  A
C368        H379   1.082       .  S
C369        C378   1.356       .  A
C369        C370   1.381       .  A
C370        C371   1.405       .  A
C370        O376   1.319       .  A
C371        C372   1.403       .  A
C371        H380   1.082       .  S
C372        C375   1.364       .  A
O373        C374   1.327       .  A
C374        C375   1.391       .  A
C375        H381   1.082       .  S
O376        C377   1.331       .  A
C377        C378   1.387       .  A
C378        H382   1.083       .  S
C383        C388   1.381       .  A
C383        C384   1.403       .  A
C383        O389   1.318       .  A
C384        C385   1.402       .  A
C384        H395   1.083       .  S
C385        C394   1.363       .  A
C385        C386   1.381       .  A
C386        C387   1.400       .  A
C386        O392   1.315       .  A
C387        C388   1.398       .  A
C387        H396   1.083       .  S
C388        C391   1.357       .  A
O389        C390   1.330       .  A
C390        C391   1.388       .  A
C391        H397   1.083       .  S
O392        C393   1.329       .  A
C393        C394   1.390       .  A
C394        H398   1.083       .  S
C399        C404   1.382       .  A
C399        C400   1.401       .  A
C399        O405   1.318       .  A
C400       C1485   1.401       .  A
C400       H1495   1.082       .  S
C401        C410   1.358   1_655  A
C401        C402   1.381   1_655  A
C401       C1484   1.401       .  A
C402       C1487   1.403   1_455  A
C402        O408   1.320       .  A
C403        C404   1.403       .  A
C403       C1486   1.403       .  A
C403        H412   1.082       .  S
C404        C407   1.359       .  A
O405        C406   1.328       .  A
C406        C407   1.391       .  A
C407        H413   1.082       .  S
O408        C409   1.330       .  A
C409        C410   1.390       .  A
C410        H414   1.083       .  S
H411       C1484   1.082       .  S
C415        C420   1.381       .  A
C415        C416   1.403       .  A
C415        O421   1.319       .  A
C416        C959   1.402       .  A
C416        H427   1.083       .  S
C417        C426   1.360       .  A
C417        C418   1.381       .  A
C417        C958   1.402       .  A
C418        C961   1.402       .  A
C418        O424   1.319       .  A
C419        C420   1.401       .  A
C419        C960   1.402   1_545  A
C419        H428   1.083       .  S
C420        C423   1.359       .  A
O421        C422   1.329       .  A
C422        C423   1.390       .  A
C423        H429   1.083       .  S
O424        C425   1.330       .  A
C425        C426   1.391       .  A
C426        H430   1.083       .  S
C431        C436   1.381       .  A
C431        C432   1.403       .  A
C431        O437   1.319       .  A
C432        C433   1.403       .  A
C432        H443   1.083       .  S
C433        C442   1.362       .  A
C433        C434   1.380       .  A
C434        C435   1.406       .  A
C434        O440   1.322       .  A
C435        C436   1.405       .  A
C435        H444   1.083       .  S
C436        C439   1.364       .  A
O437        C438   1.330       .  A
C438        C439   1.390       .  A
C439        H445   1.083       .  S
O440        C441   1.332       .  A
C441        C442   1.392       .  A
C442        H446   1.083       .  S
C447        C452   1.379       .  A
C447        C448   1.407       .  A
C447        O453   1.327       .  A
C448       C1533   1.409       .  A
C448        H459   1.082       .  S
C449        C458   1.363   1_655  A
C449        C450   1.380   1_655  A
C449       C1532   1.409       .  A
C450       C1535   1.405   1_455  A
C450        O456   1.326       .  A
C451        C452   1.407       .  A
C451       C1534   1.405       .  A
C451        H460   1.082       .  S
C452        C455   1.359       .  A
O453        C454   1.333       .  A
C454        C455   1.397       .  A
C455        H461   1.082       .  S
O456        C457   1.333       .  A
C457        C458   1.394       .  A
C458        H462   1.082       .  S
C463        C468   1.380       .  A
C463       C1006   1.405       .  A
C463        O469   1.325       .  A
C464        C465   1.406       .  A
C464       C1005   1.405   1_545  A
C464       H1017   1.082   1_545  S
C465        C474   1.358       .  A
C465        C466   1.379       .  A
C466        C467   1.406       .  A
C466        O472   1.326       .  A
C467       C1010   1.408       .  A
C467        H476   1.082       .  S
C468        C471   1.361       .  A
C468       C1009   1.408       .  A
O469        C470   1.332       .  A
C470        C471   1.394       .  A
C471        H477   1.083       .  S
O472        C473   1.333       .  A
C473        C474   1.397       .  A
C474        H478   1.081       .  S
H475       C1006   1.082       .  S
C479        C484   1.379       .  A
C479        C480   1.408       .  A
C479        O485   1.319       .  A
C480        C481   1.405       .  A
C480        H491   1.082       .  S
C481        C490   1.371       .  A
C481        C482   1.377       .  A
C482        C483   1.407       .  A
C482        O488   1.316       .  A
C483        C484   1.405       .  A
C483        H492   1.082       .  S
C484        C487   1.370       .  A
O485        C486   1.333       .  A
C486        C487   1.394       .  A
C487        H493   1.082       .  S
O488        C489   1.334       .  A
C489        C490   1.394       .  A
C490        H494   1.082       .  S
C495        C500   1.381       .  A
C495        C496   1.403       .  A
C495        O501   1.319       .  A
C496        C497   1.403       .  A
C496        H507   1.083       .  S
C497        C506   1.361       .  A
C497        C498   1.381       .  A
C498        C499   1.403       .  A
C498        O504   1.319       .  A
C499        C500   1.402       .  A
C499        H508   1.083       .  S
C500        C503   1.360       .  A
O501        C502   1.331       .  A
C502        C503   1.391       .  A
C503        H509   1.083       .  S
O504        C505   1.331       .  A
C505        C506   1.392       .  A
C506        H510   1.083       .  S
C511        C516   1.381       .  A
C511        C512   1.401       .  A
C511        O517   1.317       .  A
C512        C513   1.400       .  A
C512        H523   1.083       .  S
C513        C522   1.359       .  A
C513        C514   1.381       .  A
C514        C515   1.403       .  A
C514        O520   1.319       .  A
C515        C516   1.403       .  A
C515        H524   1.083       .  S
C516        C519   1.361       .  A
O517        C518   1.329       .  A
C518        C519   1.392       .  A
C519        H525   1.083       .  S
O520        C521   1.331       .  A
C521        C522   1.390       .  A
C522        H526   1.083       .  S
C527        C532   1.381       .  A
C527        C528   1.402       .  A
C527        O533   1.317       .  A
C528        C529   1.401       .  A
C528        H539   1.083       .  S
C529        C538   1.361       .  A
C529        C530   1.380       .  A
C530        C531   1.403       .  A
C530        O536   1.318       .  A
C531        C532   1.402       .  A
C531        H540   1.083       .  S
C532        C535   1.363       .  A
O533        C534   1.330       .  A
C534        C535   1.391       .  A
C535        H541   1.083       .  S
O536        C537   1.331       .  A
C537        C538   1.391       .  A
C538        H542   1.083       .  S
Zn543       O547   1.957       .  S
Zn543       O548   2.004       .  S
Zn543       O552   2.011       .  S
Zn543       O559   2.003       .  S
Zn544       O547   1.990       .  S
Zn544       O549   2.081       .  S
Zn544       O551   2.081       .  S
Zn544       O555   2.088       .  S
Zn545       O547   1.966       .  S
Zn545       O550   2.020       .  S
Zn545       O553   2.005       .  S
Zn545       O556   2.016       .  S
Zn546       O547   1.961       .  S
Zn546       O554   2.008       .  S
Zn546       O557   1.992       .  S
Zn546       O558   2.027       .  S
O548        C560   1.272       .  A
O549        C561   1.281       .  A
O550        C562   1.272       .  A
O551        C560   1.281       .  A
O552        C562   1.272       .  A
O553        C561   1.272       .  A
O554        C563   1.271       .  A
O555        C564   1.282       .  A
O556        C563   1.271       .  A
O557        C564   1.272       .  A
O558        C565   1.273       .  A
O559        C565   1.270       .  A
C560        C999   1.481       .  S
C561       C1028   1.481       .  S
C562       C1044   1.470       .  S
C563       C1063   1.468       .  S
C564       C1012   1.479       .  S
C565       C1076   1.469       .  S
C566        H567   1.110       .  S
C566        C572   1.557       .  S
C566        C571   1.550       .  S
C566        C570   1.551       .  S
C568        H569   1.112       .  S
C568        C574   1.529       .  S
C568        C573   1.527       .  S
C568        C575   1.526       .  S
C570        C573   1.376       .  D
C570       C1015   1.496       .  S
C571        C574   1.376       .  D
C571        C996   1.498       .  S
C572        C575   1.377       .  D
C572       C1031   1.496       .  S
C573        C964   1.473       .  S
C574        C948   1.473       .  S
C575        C980   1.476       .  S
Zn576       O580   1.941       .  S
Zn576       O581   1.978       .  S
Zn576       O585   1.988       .  S
Zn576       O592   1.982       .  S
Zn577       O580   1.960       .  S
Zn577       O582   2.007       .  S
Zn577       O584   2.014       .  S
Zn577       O588   2.043       .  S
Zn578       O580   1.964       .  S
Zn578       O583   2.033       .  S
Zn578       O586   2.030       .  S
Zn578       O589   2.003       .  S
Zn579       O580   1.961       .  S
Zn579       O587   2.028       .  S
Zn579       O590   2.017       .  S
Zn579       O591   2.030       .  S
O581        C593   1.268       .  A
O582        C594   1.274       .  A
O583        C595   1.272       .  A
O584        C593   1.271       .  A
O585        C595   1.267       .  A
O586        C594   1.275       .  A
O587        C596   1.275       .  A
O588        C597   1.276       .  A
O589        C596   1.273       .  A
O590        C597   1.274       .  A
O591        C598   1.273       .  A
O592        C598   1.268       .  A
C593        C900   1.456       .  S
C594        C951   1.466       .  S
C595        C935   1.461       .  S
C596        C967   1.466       .  S
C597        C983   1.475       .  S
C598        C916   1.459       .  S
Zn599       O603   1.969       .  S
Zn599       O604   2.035       .  S
Zn599       O608   2.034       .  S
Zn599       O615   2.037       .  S
Zn600       O603   1.967       .  S
Zn600       O605   2.029       .  S
Zn600       O607   2.034       .  S
Zn600       O611   2.046       .  S
Zn601       O603   1.969       .  S
Zn601       O606   2.021       .  S
Zn601       O609   2.023       .  S
Zn601       O612   2.052       .  S
Zn602       O603   1.930       .  S
Zn602       O610   1.951       .  S
Zn602       O613   1.958       .  S
Zn602       O614   1.954       .  S
O604        C616   1.276       .  A
O605        C617   1.275       .  A
O606        C618   1.275       .  A
O607        C616   1.277       .  A
O608        C618   1.276       .  A
O609        C617   1.275       .  A
O610        C619   1.264       .  A
O611        C620   1.275       .  A
O612        C619   1.274       .  A
O613        C620   1.264       .  A
O614        C621   1.264       .  A
O615        C621   1.274       .  A
C616        C807   1.476       .  S
C617        C820   1.469       .  S
C618        C839   1.474       .  S
C619        C868   1.465       .  S
C620        C887   1.463       .  S
C621        C852   1.460       .  S
C622        H623   1.111       .  S
C622        C628   1.535       .  S
C622        C627   1.537       .  S
C622        C626   1.538       .  S
C624        H625   1.111       .  S
C624        C630   1.537       .  S
C624        C629   1.535       .  S
C624        C631   1.538       .  S
C626        C629   1.370       .  D
C626        C756   1.478       .  S
C627        C630   1.370       .  D
C627        C788   1.474       .  S
C628        C631   1.370       .  D
C628        C772   1.471       .  S
C629        C823   1.473       .  S
C630        C836   1.474       .  S
C631        C804   1.476       .  S
Zn632       O636   1.963       .  S
Zn632       O637   2.026       .  S
Zn632       O641   2.036       .  S
Zn632       O648   2.021       .  S
Zn633       O636   1.964       .  S
Zn633       O638   2.043       .  S
Zn633       O640   2.022       .  S
Zn633       O644   2.026       .  S
Zn634       O636   1.926       .  S
Zn634       O639   1.958       .  S
Zn634       O642   1.957       .  S
Zn634       O645   1.954       .  S
Zn635       O636   1.966       .  S
Zn635       O643   2.037       .  S
Zn635       O646   2.024       .  S
Zn635       O647   2.031       .  S
O637        C649   1.276       .  A
O638        C650   1.273       .  A
O639        C651   1.265       .  A
O640        C649   1.275       .  A
O641        C651   1.273       .  A
O642        C650   1.264       .  A
O643        C652   1.273       .  A
O644        C653   1.276       .  A
O645        C652   1.264       .  A
O646        C653   1.275       .  A
O647        C654   1.276       .  A
O648        C654   1.274       .  A
C649        C791   1.469       .  S
C650        C711   1.461       .  S
C651        C727   1.462       .  S
C652        C743   1.459       .  S
C653        C775   1.469       .  S
C654        C759   1.470       .  S
Zn655       O659   1.914   1_554  S
Zn655      O1744   1.956       .  S
Zn655       O664   1.952   1_655  S
Zn655      O1213   1.954       .  S
Zn656      O1743   1.953       .  S
Zn656      O1745   2.012       .  S
Zn656       O663   2.036       .  S
Zn657       O659   1.955   1_455  S
Zn657       O662   2.034       .  S
Zn657       O665   2.002       .  S
Zn658      O1201   1.955   1_565  S
Zn658      O1750   2.002       .  S
Zn658       O669   2.022       .  S
Zn658       O670   2.044       .  S
O659      Zn1740   1.953       .  S
O659      Zn1200   1.955       .  S
O660      Zn1739   1.956       .  S
O660        C672   1.265       .  A
O661      Zn1740   2.012   1_455  S
O661        C673   1.271       .  A
O662        C674   1.274   1_556  A
O663        C672   1.274   1_556  A
O664        C674   1.264       .  A
O665        C673   1.272       .  A
O666      Zn1742   2.002   1_455  S
O666        C675   1.273       .  A
O667        C676   1.272       .  A
O668        C675   1.272       .  A
O669        C676   1.273       .  A
O670        C677   1.275   1_556  A
O671      Zn1197   1.955   1_565  S
O671        C677   1.265       .  A
C672        C740   1.458       .  S
C673        C903   1.457       .  S
C674        C708   1.458       .  S
C675        C932   1.459       .  S
C676        C919   1.461       .  S
C677        C724   1.463       .  S
Zn678       O687   2.013       .  S
Zn678       O694   2.039       .  S
Zn679      O1766   1.969   1_565  S
Zn679       O684   2.013       .  S
Zn679      O1770   2.016       .  S
Zn679       O690   2.041       .  S
Zn680      O1224   1.969       .  S
Zn680      O1769   2.031       .  S
Zn680       O691   2.052       .  S
Zn681       O682   1.925       .  S
Zn681      O1231   1.964   1_455  S
Zn681      O1776   1.962   1_445  S
O682      Zn1763   1.969   1_445  S
O682      Zn1222   1.969   1_455  S
O683        C695   1.272       .  A
O684        C696   1.274       .  A
O685      Zn1764   2.031   1_455  S
O685        C697   1.275       .  A
O686      Zn1763   2.016   1_455  S
O686        C695   1.274       .  A
O687        C697   1.273       .  A
O688        C696   1.274       .  A
O689      Zn1223   1.964       .  S
O689        C698   1.266       .  A
O690        C699   1.274       .  A
O691        C698   1.276       .  A
O692      Zn1765   1.962   1_565  S
O692        C699   1.266       .  A
O693        C700   1.266       .  A
O694        C700   1.275       .  A
C695       C1079   1.467       .  S
C696       C1060   1.466       .  S
C697       C1047   1.471       .  S
C698        C884   1.465       .  S
C699        C871   1.464       .  S
C700        C855   1.461       .  S
C701        C706   1.380       .  A
C701        C702   1.402       .  A
C701        O707   1.312       .  A
C702        C703   1.399       .  A
C702        H713   1.082       .  S
C703        C712   1.364       .  A
C703        C704   1.381       .  A
C704        C705   1.401       .  A
C704        O710   1.311       .  A
C705        C706   1.397       .  A
C705        H714   1.082       .  S
C706        C709   1.362       .  A
O707        C708   1.330       .  A
C708        C709   1.388       .  A
C709        H715   1.082       .  S
O710        C711   1.329       .  A
C711        C712   1.390       .  A
C712        H716   1.082       .  S
C717        C722   1.382       .  A
C717        C718   1.399       .  A
C717        O723   1.320       .  A
C718        C719   1.401       .  A
C718        H729   1.082       .  S
C719        C728   1.353       .  A
C719        C720   1.382       .  A
C720        C721   1.399       .  A
C720        O726   1.319       .  A
C721        C722   1.400       .  A
C721        H730   1.082       .  S
C722        C725   1.352       .  A
O723        C724   1.328       .  A
C724        C725   1.391       .  A
C725        H731   1.083       .  S
O726        C727   1.328       .  A
C727        C728   1.391       .  A
C728        H732   1.083       .  S
C733        C738   1.381       .  A
C733        C734   1.402       .  A
C733        O739   1.311       .  A
C734        C735   1.398       .  A
C734        H745   1.082       .  S
C735        C744   1.363       .  A
C735        C736   1.381       .  A
C736        C737   1.400       .  A
C736        O742   1.311       .  A
C737        C738   1.397       .  A
C737        H746   1.082       .  S
C738        C741   1.362       .  A
O739        C740   1.330       .  A
C740        C741   1.388       .  A
C741        H747   1.082       .  S
O742        C743   1.329       .  A
C743        C744   1.389       .  A
C744        H748   1.082       .  S
C749        C754   1.380       .  A
C749        C750   1.403       .  A
C749        O755   1.317       .  A
C750       C1835   1.401   1_455  A
C750        H761   1.083       .  S
C751       C1834   1.401       .  A
C751        C760   1.362       .  A
C751        C752   1.380       .  A
C752       C1837   1.406       .  A
C752        O758   1.320       .  A
C753       C1836   1.406   1_455  A
C753        C754   1.405       .  A
C753        H762   1.083       .  S
C754        C757   1.366       .  A
O755        C756   1.330       .  A
C756        C757   1.391       .  A
C757        H763   1.083       .  S
O758        C759   1.332       .  A
C759        C760   1.390       .  A
C760        H764   1.083       .  S
C765        C770   1.381       .  A
C765        C766   1.401       .  A
C765        O771   1.316       .  A
C766        H777   1.083       .  S
C767        C776   1.360       .  A
C767        C768   1.380       .  A
C768        O774   1.320       .  A
C769        C770   1.404       .  A
C769        H778   1.083       .  S
C770        C773   1.364       .  A
O771        C772   1.328       .  A
C772        C773   1.389       .  A
C773        H779   1.083       .  S
O774        C775   1.332       .  A
C775        C776   1.389       .  A
C776        H780   1.083       .  S
C781        C786   1.381       .  A
C781        C782   1.403       .  A
C781        O787   1.317       .  A
C782        C783   1.402       .  A
C782        H793   1.083       .  S
C783        C792   1.363       .  A
C783        C784   1.381       .  A
C784        C785   1.404       .  A
C784        O790   1.318       .  A
C785        C786   1.403       .  A
C785        H794   1.083       .  S
C786        C789   1.364       .  A
O787        C788   1.330       .  A
C788        C789   1.389       .  A
C789        H795   1.083       .  S
O790        C791   1.331       .  A
C791        C792   1.391       .  A
C792        H796   1.083       .  S
C797        C802   1.381       .  A
C797        C798   1.403       .  A
C797        O803   1.318       .  A
C798        H809   1.083       .  S
C799        C808   1.363       .  A
C799        C800   1.380       .  A
C800        O806   1.322       .  A
C801        C802   1.406       .  A
C801        H810   1.083       .  S
C802        C805   1.366       .  A
O803        C804   1.330       .  A
C804        C805   1.390       .  A
C805        H811   1.083       .  S
O806        C807   1.333       .  A
C807        C808   1.391       .  A
C808        H812   1.083       .  S
C813        C818   1.380       .  A
C813       C1898   1.404       .  A
C813        O819   1.319       .  A
C814       C1897   1.404   1_455  A
C814        C815   1.403       .  A
C814        H825   1.082       .  S
C815        C824   1.364       .  A
C815        C816   1.381       .  A
C816        C817   1.403       .  A
C816        O822   1.316       .  A
C817       C1902   1.402   1_455  A
C817        H826   1.082       .  S
C818       C1901   1.402       .  A
C818        C821   1.362       .  A
O819        C820   1.331       .  A
C820        C821   1.391       .  A
C821        H827   1.082       .  S
O822        C823   1.330       .  A
C823        C824   1.388       .  A
C824        H828   1.082       .  S
C829        C834   1.381       .  A
C829        C830   1.404       .  A
C829        O835   1.320       .  A
C830        C831   1.404       .  A
C830        H841   1.082       .  S
C831        C840   1.362       .  A
C831        C832   1.380       .  A
C832        C833   1.404       .  A
C832        O838   1.320       .  A
C833        C834   1.404       .  A
C833        H842   1.082       .  S
C834        C837   1.363       .  A
O835        C836   1.330       .  A
C836        C837   1.389       .  A
C837        H843   1.082       .  S
O838        C839   1.332       .  A
C839        C840   1.392       .  A
C840        H844   1.082       .  S
C845        C850   1.381       .  A
C845        C846   1.402       .  A
C845        O851   1.312       .  A
C846        C847   1.399       .  A
C846        H857   1.082       .  S
C847        C856   1.363       .  A
C847        C848   1.381       .  A
C848        C849   1.401       .  A
C848        O854   1.312       .  A
C849        C850   1.398       .  A
C849        H858   1.082       .  S
C850        C853   1.362       .  A
O851        C852   1.330       .  A
C852        C853   1.388       .  A
C853        H859   1.082       .  S
O854        C855   1.330       .  A
C855        C856   1.389       .  A
C856        H860   1.082       .  S
C861        C866   1.381       .  A
C861        C862   1.400       .  A
C861        O867   1.321       .  A
C862        C863   1.402       .  A
C862        H873   1.082       .  S
C863        C872   1.353       .  A
C863        C864   1.382       .  A
C864        C865   1.399       .  A
C864        O870   1.320       .  A
C865        C866   1.401       .  A
C865        H874   1.082       .  S
C866        C869   1.352       .  A
O867        C868   1.329       .  A
C868        C869   1.391       .  A
C869        H875   1.083       .  S
O870        C871   1.329       .  A
C871        C872   1.391       .  A
C872        H876   1.083       .  S
C877        C882   1.380       .  A
C877        C878   1.402       .  A
C877        O883   1.312       .  A
C878        C879   1.398       .  A
C878        H889   1.082       .  S
C879        C888   1.363       .  A
C879        C880   1.380       .  A
C880        C881   1.404       .  A
C880        O886   1.314       .  A
C881        C882   1.400       .  A
C881        H890   1.082       .  S
C882        C885   1.366       .  A
O883        C884   1.330       .  A
C884        C885   1.390       .  A
C885        H891   1.082       .  S
O886        C887   1.331       .  A
C887        C888   1.389       .  A
C888        H892   1.082       .  S
C893        C898   1.381       .  A
C893        C894   1.397       .  A
C893        O899   1.312       .  A
C894        C895   1.396       .  A
C894        H905   1.082       .  S
C895        C904   1.356       .  A
C895        C896   1.381       .  A
C896        C897   1.404       .  A
C896        O902   1.317       .  A
C897        C898   1.402       .  A
C897        H906   1.082       .  S
C898        C901   1.362       .  A
O899        C900   1.327       .  A
C900        C901   1.390       .  A
C901        H907   1.082       .  S
O902        C903   1.330       .  A
C903        C904   1.386       .  A
C904        H908   1.082       .  S
C909        C914   1.381       .  A
C909        C910   1.398       .  A
C909        O915   1.313       .  A
C910        C911   1.397       .  A
C910        H921   1.082       .  S
C911        C920   1.356       .  A
C911        C912   1.381       .  A
C912        C913   1.405       .  A
C912        O918   1.319       .  A
C913        C914   1.403       .  A
C913        H922   1.082       .  S
C914        C917   1.364       .  A
O915        C916   1.327       .  A
C916        C917   1.391       .  A
C917        H923   1.082       .  S
O918        C919   1.331       .  A
C919        C920   1.387       .  A
C920        H924   1.083       .  S
C925        C930   1.381       .  A
C925        C926   1.403       .  A
C925        O931   1.318       .  A
C926        C927   1.402       .  A
C926        H937   1.083       .  S
C927        C936   1.363       .  A
C927        C928   1.381       .  A
C928        C929   1.400       .  A
C928        O934   1.315       .  A
C929        C930   1.398       .  A
C929        H938   1.083       .  S
C930        C933   1.357       .  A
O931        C932   1.330       .  A
C932        C933   1.388       .  A
C933        H939   1.083       .  S
O934        C935   1.328       .  A
C935        C936   1.390       .  A
C936        H940   1.083       .  S
C941        C946   1.382       .  A
C941        C942   1.401       .  A
C941        O947   1.318       .  A
C942       C2027   1.401       .  A
C942       H2037   1.082       .  S
C943       C2026   1.401       .  A
C943        C952   1.358   1_655  A
C943        C944   1.381   1_655  A
C944       C2029   1.403   1_455  A
C944        O950   1.320       .  A
C945       C2028   1.403       .  A
C945        C946   1.403       .  A
C945        H954   1.082       .  S
C946        C949   1.359       .  A
O947        C948   1.328       .  A
C948        C949   1.391       .  A
C949        H955   1.082       .  S
O950        C951   1.330       .  A
C951        C952   1.390       .  A
C952        H956   1.083       .  S
H953       C2026   1.082       .  S
C957        C962   1.381       .  A
C957        C958   1.403       .  A
C957        O963   1.319       .  A
C958        H969   1.083       .  S
C959        C968   1.360   1_545  A
C959        C960   1.381   1_545  A
C960        O966   1.319       .  A
C961        C962   1.401       .  A
C961        H970   1.083       .  S
C962        C965   1.359       .  A
O963        C964   1.329       .  A
C964        C965   1.390       .  A
C965        H971   1.083       .  S
O966        C967   1.329       .  A
C967        C968   1.391       .  A
C968        H972   1.083       .  S
C973        C978   1.381       .  A
C973        C974   1.403       .  A
C973        O979   1.319       .  A
C974        C975   1.403       .  A
C974        H985   1.083       .  S
C975        C984   1.362       .  A
C975        C976   1.380       .  A
C976        C977   1.406       .  A
C976        O982   1.322       .  A
C977        C978   1.405       .  A
C977        H986   1.083       .  S
C978        C981   1.364       .  A
O979        C980   1.330       .  A
C980        C981   1.390       .  A
C981        H987   1.083       .  S
O982        C983   1.332       .  A
C983        C984   1.392       .  A
C984        H988   1.083       .  S
C989        C994   1.379       .  A
C989        C990   1.407       .  A
C989        O995   1.327       .  A
C990       C2075   1.409       .  A
C990       H1001   1.082       .  S
C991       C2074   1.409       .  A
C991       C1000   1.363   1_655  A
C991        C992   1.380   1_655  A
C992       C2077   1.405   1_455  A
C992        O998   1.326       .  A
C993       C2076   1.405       .  A
C993        C994   1.407       .  A
C993       H1002   1.082       .  S
C994        C997   1.359       .  A
O995        C996   1.333       .  A
C996        C997   1.397       .  A
C997       H1003   1.082       .  S
O998        C999   1.333       .  A
C999       C1000   1.394       .  A
C1000      H1004   1.082       .  S
C1005      C1010   1.380   1_565  A
C1005      O1011   1.325       .  A
C1006      C1007   1.407       .  A
C1007      C1016   1.358       .  A
C1007      C1008   1.379       .  A
C1008      C1009   1.406       .  A
C1008      O1014   1.326       .  A
C1009      H1018   1.082       .  S
C1010      C1013   1.361   1_545  A
O1011      C1012   1.332       .  A
C1012      C1013   1.394       .  A
C1013      H1019   1.083       .  S
O1014      C1015   1.333       .  A
C1015      C1016   1.397       .  A
C1016      H1020   1.081       .  S
C1021      C1026   1.379       .  A
C1021      C1022   1.408       .  A
C1021      O1027   1.319       .  A
C1022      C1023   1.405       .  A
C1022      H1033   1.082       .  S
C1023      C1032   1.371       .  A
C1023      C1024   1.377       .  A
C1024      C1025   1.407       .  A
C1024      O1030   1.316       .  A
C1025      C1026   1.405       .  A
C1025      H1034   1.082       .  S
C1026      C1029   1.370       .  A
O1027      C1028   1.333       .  A
C1028      C1029   1.394       .  A
C1029      H1035   1.082       .  S
O1030      C1031   1.334       .  A
C1031      C1032   1.394       .  A
C1032      H1036   1.082       .  S
C1037      C1042   1.381       .  A
C1037      C1038   1.403       .  A
C1037      O1043   1.319       .  A
C1038      C1039   1.403       .  A
C1038      H1049   1.083       .  S
C1039      C1048   1.361       .  A
C1039      C1040   1.381       .  A
C1040      C1041   1.403       .  A
C1040      O1046   1.319       .  A
C1041      C1042   1.402       .  A
C1041      H1050   1.083       .  S
C1042      C1045   1.360       .  A
O1043      C1044   1.331       .  A
C1044      C1045   1.391       .  A
C1045      H1051   1.083       .  S
O1046      C1047   1.331       .  A
C1047      C1048   1.392       .  A
C1048      H1052   1.083       .  S
C1053      C1058   1.381       .  A
C1053      C1054   1.401       .  A
C1053      O1059   1.317       .  A
C1054      C1055   1.400       .  A
C1054      H1065   1.083       .  S
C1055      C1064   1.359       .  A
C1055      C1056   1.381       .  A
C1056      C1057   1.403       .  A
C1056      O1062   1.319       .  A
C1057      C1058   1.403       .  A
C1057      H1066   1.083       .  S
C1058      C1061   1.361       .  A
O1059      C1060   1.329       .  A
C1060      C1061   1.392       .  A
C1061      H1067   1.083       .  S
O1062      C1063   1.331       .  A
C1063      C1064   1.390       .  A
C1064      H1068   1.083       .  S
C1069      C1074   1.381       .  A
C1069      C1070   1.402       .  A
C1069      O1075   1.317       .  A
C1070      C1071   1.401       .  A
C1070      H1081   1.083       .  S
C1071      C1080   1.361       .  A
C1071      C1072   1.380       .  A
C1072      C1073   1.403       .  A
C1072      O1078   1.318       .  A
C1073      C1074   1.402       .  A
C1073      H1082   1.083       .  S
C1074      C1077   1.363       .  A
O1075      C1076   1.330       .  A
C1076      C1077   1.391       .  A
C1077      H1083   1.083       .  S
O1078      C1079   1.331       .  A
C1079      C1080   1.391       .  A
C1080      H1084   1.083       .  S
Zn1085     O1089   1.957       .  S
Zn1085     O1090   2.004       .  S
Zn1085     O1094   2.011       .  S
Zn1085     O1101   2.003       .  S
Zn1086     O1089   1.990       .  S
Zn1086     O1091   2.081       .  S
Zn1086     O1093   2.081       .  S
Zn1086     O1097   2.088       .  S
Zn1087     O1089   1.966       .  S
Zn1087     O1092   2.020       .  S
Zn1087     O1095   2.005       .  S
Zn1087     O1098   2.016       .  S
Zn1088     O1089   1.961       .  S
Zn1088     O1096   2.008       .  S
Zn1088     O1099   1.992       .  S
Zn1088     O1100   2.027       .  S
O1090      C1102   1.272       .  A
O1091      C1103   1.281       .  A
O1092      C1104   1.272       .  A
O1093      C1102   1.281       .  A
O1094      C1104   1.272       .  A
O1095      C1103   1.272       .  A
O1096      C1105   1.271       .  A
O1097      C1106   1.282       .  A
O1098      C1105   1.271       .  A
O1099      C1106   1.272       .  A
O1100      C1107   1.273       .  A
O1101      C1107   1.270       .  A
C1102      C1541   1.481       .  S
C1103      C1570   1.480       .  S
C1104      C1586   1.470       .  S
C1105      C1605   1.468       .  S
C1106      C1554   1.479       .  S
C1107      C1618   1.469       .  S
C1108      H1109   1.110       .  S
C1108      C1114   1.557       .  S
C1108      C1113   1.550       .  S
C1108      C1112   1.551       .  S
C1110      H1111   1.112       .  S
C1110      C1116   1.529       .  S
C1110      C1115   1.527       .  S
C1110      C1117   1.526       .  S
C1112      C1115   1.376       .  D
C1112      C1557   1.496       .  S
C1113      C1116   1.376       .  D
C1113      C1538   1.498       .  S
C1114      C1117   1.377       .  D
C1114      C1573   1.496       .  S
C1115      C1506   1.473       .  S
C1116      C1490   1.473       .  S
C1117      C1522   1.476       .  S
Zn1118     O1122   1.941       .  S
Zn1118     O1123   1.978       .  S
Zn1118     O1127   1.988       .  S
Zn1118     O1134   1.982       .  S
Zn1119     O1122   1.960       .  S
Zn1119     O1124   2.007       .  S
Zn1119     O1126   2.015       .  S
Zn1119     O1130   2.043       .  S
Zn1120     O1122   1.964       .  S
Zn1120     O1125   2.033       .  S
Zn1120     O1128   2.030       .  S
Zn1120     O1131   2.003       .  S
Zn1121     O1122   1.961       .  S
Zn1121     O1129   2.028       .  S
Zn1121     O1132   2.017       .  S
Zn1121     O1133   2.030       .  S
O1123      C1135   1.268       .  A
O1124      C1136   1.274       .  A
O1125      C1137   1.272       .  A
O1126      C1135   1.271       .  A
O1127      C1137   1.267       .  A
O1128      C1136   1.275       .  A
O1129      C1138   1.275       .  A
O1130      C1139   1.276       .  A
O1131      C1138   1.273       .  A
O1132      C1139   1.274       .  A
O1133      C1140   1.273       .  A
O1134      C1140   1.268       .  A
C1135      C1442   1.456       .  S
C1136      C1493   1.466       .  S
C1137      C1477   1.461       .  S
C1138      C1509   1.467       .  S
C1139      C1525   1.476       .  S
C1140      C1458   1.459       .  S
Zn1141     O1145   1.969       .  S
Zn1141     O1146   2.035       .  S
Zn1141     O1150   2.034       .  S
Zn1141     O1157   2.037       .  S
Zn1142     O1145   1.967       .  S
Zn1142     O1147   2.029       .  S
Zn1142     O1149   2.034       .  S
Zn1142     O1153   2.046       .  S
Zn1143     O1145   1.969       .  S
Zn1143     O1148   2.021       .  S
Zn1143     O1151   2.023       .  S
Zn1143     O1154   2.052       .  S
Zn1144     O1145   1.929       .  S
Zn1144     O1152   1.951       .  S
Zn1144     O1155   1.958       .  S
Zn1144     O1156   1.954       .  S
O1146      C1158   1.276       .  A
O1147      C1159   1.275       .  A
O1148      C1160   1.275       .  A
O1149      C1158   1.277       .  A
O1150      C1160   1.276       .  A
O1151      C1159   1.275       .  A
O1152      C1161   1.264       .  A
O1153      C1162   1.275       .  A
O1154      C1161   1.274       .  A
O1155      C1162   1.264       .  A
O1156      C1163   1.264       .  A
O1157      C1163   1.274       .  A
C1158      C1349   1.476       .  S
C1159      C1362   1.469       .  S
C1160      C1381   1.474       .  S
C1161      C1410   1.465       .  S
C1162      C1429   1.463       .  S
C1163      C1394   1.459       .  S
C1164      H1165   1.111       .  S
C1164      C1170   1.535       .  S
C1164      C1169   1.537       .  S
C1164      C1168   1.538       .  S
C1166      H1167   1.111       .  S
C1166      C1172   1.537       .  S
C1166      C1171   1.535       .  S
C1166      C1173   1.538       .  S
C1168      C1171   1.371       .  D
C1168      C1298   1.478       .  S
C1169      C1172   1.370       .  D
C1169      C1330   1.474       .  S
C1170      C1173   1.370       .  D
C1170      C1314   1.471       .  S
C1171      C1365   1.473       .  S
C1172      C1378   1.474       .  S
C1173      C1346   1.476       .  S
Zn1174     O1178   1.963       .  S
Zn1174     O1179   2.026       .  S
Zn1174     O1183   2.036       .  S
Zn1174     O1190   2.021       .  S
Zn1175     O1178   1.964       .  S
Zn1175     O1180   2.043       .  S
Zn1175     O1182   2.022       .  S
Zn1175     O1186   2.026       .  S
Zn1176     O1178   1.926       .  S
Zn1176     O1181   1.958       .  S
Zn1176     O1184   1.957       .  S
Zn1176     O1187   1.954       .  S
Zn1177     O1178   1.966       .  S
Zn1177     O1185   2.037       .  S
Zn1177     O1188   2.024       .  S
Zn1177     O1189   2.031       .  S
O1179      C1191   1.276       .  A
O1180      C1192   1.273       .  A
O1181      C1193   1.265       .  A
O1182      C1191   1.275       .  A
O1183      C1193   1.273       .  A
O1184      C1192   1.264       .  A
O1185      C1194   1.273       .  A
O1186      C1195   1.276       .  A
O1187      C1194   1.264       .  A
O1188      C1195   1.275       .  A
O1189      C1196   1.276       .  A
O1190      C1196   1.274       .  A
C1191      C1333   1.469       .  S
C1192      C1253   1.461       .  S
C1193      C1269   1.462       .  S
C1194      C1285   1.459       .  S
C1195      C1317   1.469       .  S
C1196      C1301   1.470       .  S
Zn1197     O1201   1.914   1_554  S
Zn1197     O1206   1.952       .  S
Zn1198     O1205   2.036       .  S
Zn1198     O1751   1.997   1_545  S
Zn1199     O1201   1.955       .  S
Zn1199     O1204   2.033       .  S
Zn1199     O1207   2.002       .  S
Zn1199     O1752   2.010   1_545  S
Zn1200     O1211   2.022       .  S
Zn1200     O1212   2.044       .  S
O1202      C1214   1.265       .  A
O1203      C1215   1.271       .  A
O1204      C1216   1.274   1_556  A
O1205      C1214   1.274   1_556  A
O1206      C1216   1.264       .  A
O1207      C1215   1.272       .  A
O1208      C1217   1.273       .  A
O1209     Zn1740   1.996       .  S
O1209      C1218   1.272       .  A
O1210     Zn1741   2.010       .  S
O1210      C1217   1.272       .  A
O1211      C1218   1.273       .  A
O1212      C1219   1.275   1_556  A
O1213      C1219   1.265       .  A
C1214      C1282   1.458       .  S
C1215      C1445   1.457       .  S
C1216      C1250   1.458       .  S
C1217      C1474   1.459       .  S
C1218      C1461   1.461       .  S
C1219      C1266   1.463       .  S
Zn1220     O1766   1.964       .  S
Zn1220     O1767   2.012   1_545  S
Zn1220     O1229   2.013       .  S
Zn1220     O1236   2.039       .  S
Zn1221     O1226   2.013       .  S
Zn1221     O1232   2.041       .  S
Zn1222     O1772   2.015   1_545  S
Zn1222     O1233   2.052       .  S
Zn1223     O1224   1.924       .  S
Zn1223     O1777   1.963       .  S
O1224     Zn1762   1.964       .  S
O1225     Zn1762   2.012       .  S
O1225      C1237   1.272       .  A
O1226      C1238   1.274       .  A
O1227      C1239   1.275       .  A
O1228      C1237   1.274       .  A
O1229      C1239   1.274       .  A
O1230     Zn1764   2.015       .  S
O1230      C1238   1.274       .  A
O1231      C1240   1.266       .  A
O1232      C1241   1.274       .  A
O1233      C1240   1.276       .  A
O1234      C1241   1.266       .  A
O1235     Zn1765   1.963       .  S
O1235      C1242   1.266       .  A
O1236      C1242   1.275       .  A
C1237      C1621   1.467       .  S
C1238      C1602   1.466       .  S
C1239      C1589   1.471       .  S
C1240      C1426   1.465       .  S
C1241      C1413   1.464       .  S
C1242      C1397   1.461       .  S
C1243      C1248   1.380       .  A
C1243      C1244   1.402       .  A
C1243      O1249   1.312       .  A
C1244      C1245   1.399       .  A
C1244      H1255   1.082       .  S
C1245      C1254   1.364       .  A
C1245      C1246   1.381       .  A
C1246      C1247   1.401       .  A
C1246      O1252   1.311       .  A
C1247      C1248   1.397       .  A
C1247      H1256   1.082       .  S
C1248      C1251   1.362       .  A
O1249      C1250   1.330       .  A
C1250      C1251   1.388       .  A
C1251      H1257   1.082       .  S
O1252      C1253   1.329       .  A
C1253      C1254   1.390       .  A
C1254      H1258   1.082       .  S
C1259      C1264   1.382       .  A
C1259      C1260   1.399       .  A
C1259      O1265   1.320       .  A
C1260      C1261   1.401       .  A
C1260      H1271   1.082       .  S
C1261      C1270   1.353       .  A
C1261      C1262   1.382       .  A
C1262      C1263   1.399       .  A
C1262      O1268   1.319       .  A
C1263      C1264   1.400       .  A
C1263      H1272   1.082       .  S
C1264      C1267   1.352       .  A
O1265      C1266   1.328       .  A
C1266      C1267   1.391       .  A
C1267      H1273   1.083       .  S
O1268      C1269   1.328       .  A
C1269      C1270   1.391       .  A
C1270      H1274   1.083       .  S
C1275      C1280   1.381       .  A
C1275      C1276   1.402       .  A
C1275      O1281   1.312       .  A
C1276      C1277   1.398       .  A
C1276      H1287   1.082       .  S
C1277      C1286   1.363       .  A
C1277      C1278   1.381       .  A
C1278      C1279   1.400       .  A
C1278      O1284   1.311       .  A
C1279      C1280   1.397       .  A
C1279      H1288   1.082       .  S
C1280      C1283   1.362       .  A
O1281      C1282   1.330       .  A
C1282      C1283   1.388       .  A
C1283      H1289   1.082       .  S
O1284      C1285   1.329       .  A
C1285      C1286   1.389       .  A
C1286      H1290   1.082       .  S
C1291      C1296   1.380       .  A
C1291      C1292   1.403       .  A
C1291      O1297   1.317       .  A
C1292      H1303   1.083       .  S
C1293      C1302   1.362       .  A
C1293      C1294   1.380       .  A
C1294      O1300   1.320       .  A
C1295      C1296   1.405       .  A
C1295      H1304   1.083       .  S
C1296      C1299   1.366       .  A
O1297      C1298   1.330       .  A
C1298      C1299   1.391       .  A
C1299      H1305   1.083       .  S
O1300      C1301   1.332       .  A
C1301      C1302   1.390       .  A
C1302      H1306   1.083       .  S
C1307      C1312   1.381       .  A
C1307      C1308   1.401       .  A
C1307      O1313   1.316       .  A
C1308      C1851   1.400       .  A
C1308      H1319   1.083       .  S
C1309      C1850   1.400   1_545  A
C1309      C1318   1.360       .  A
C1309      C1310   1.380       .  A
C1310      C1853   1.405   1_545  A
C1310      O1316   1.320       .  A
C1311      C1852   1.405       .  A
C1311      C1312   1.404       .  A
C1311      H1320   1.083       .  S
C1312      C1315   1.364       .  A
O1313      C1314   1.328       .  A
C1314      C1315   1.389       .  A
C1315      H1321   1.083       .  S
O1316      C1317   1.332       .  A
C1317      C1318   1.389       .  A
C1318      H1322   1.083       .  S
C1323      C1328   1.381       .  A
C1323      C1324   1.403       .  A
C1323      O1329   1.317       .  A
C1324      C1325   1.402       .  A
C1324      H1335   1.083       .  S
C1325      C1334   1.363       .  A
C1325      C1326   1.381       .  A
C1326      C1327   1.404       .  A
C1326      O1332   1.319       .  A
C1327      C1328   1.403       .  A
C1327      H1336   1.083       .  S
C1328      C1331   1.364       .  A
O1329      C1330   1.330       .  A
C1330      C1331   1.389       .  A
C1331      H1337   1.083       .  S
O1332      C1333   1.331       .  A
C1333      C1334   1.391       .  A
C1334      H1338   1.083       .  S
C1339      C1344   1.381       .  A
C1339      C1340   1.403       .  A
C1339      O1345   1.318       .  A
C1340      C1883   1.402       .  A
C1340      H1351   1.083       .  S
C1341      C1882   1.402   1_545  A
C1341      C1350   1.363       .  A
C1341      C1342   1.380       .  A
C1342      C1885   1.407   1_545  A
C1342      O1348   1.322       .  A
C1343      C1884   1.407       .  A
C1343      C1344   1.406       .  A
C1343      H1352   1.083       .  S
C1344      C1347   1.366       .  A
O1345      C1346   1.330       .  A
C1346      C1347   1.390       .  A
C1347      H1353   1.083       .  S
O1348      C1349   1.333       .  A
C1349      C1350   1.391       .  A
C1350      H1354   1.083       .  S
C1355      C1360   1.380       .  A
C1355      O1361   1.319       .  A
C1356      C1357   1.403       .  A
C1356      H1367   1.082       .  S
C1357      C1366   1.364       .  A
C1357      C1358   1.381       .  A
C1358      C1359   1.403       .  A
C1358      O1364   1.317       .  A
C1359      H1368   1.082       .  S
C1360      C1363   1.362       .  A
O1361      C1362   1.331       .  A
C1362      C1363   1.391       .  A
C1363      H1369   1.082       .  S
O1364      C1365   1.330       .  A
C1365      C1366   1.388       .  A
C1366      H1370   1.082       .  S
C1371      C1376   1.381       .  A
C1371      C1372   1.404       .  A
C1371      O1377   1.320       .  A
C1372      C1373   1.404       .  A
C1372      H1383   1.082       .  S
C1373      C1382   1.362       .  A
C1373      C1374   1.380       .  A
C1374      C1375   1.404       .  A
C1374      O1380   1.320       .  A
C1375      C1376   1.404       .  A
C1375      H1384   1.082       .  S
C1376      C1379   1.362       .  A
O1377      C1378   1.330       .  A
C1378      C1379   1.389       .  A
C1379      H1385   1.082       .  S
O1380      C1381   1.332       .  A
C1381      C1382   1.392       .  A
C1382      H1386   1.082       .  S
C1387      C1392   1.381       .  A
C1387      C1388   1.402       .  A
C1387      O1393   1.312       .  A
C1388      C1389   1.399       .  A
C1388      H1399   1.082       .  S
C1389      C1398   1.363       .  A
C1389      C1390   1.381       .  A
C1390      C1391   1.401       .  A
C1390      O1396   1.312       .  A
C1391      C1392   1.398       .  A
C1391      H1400   1.082       .  S
C1392      C1395   1.362       .  A
O1393      C1394   1.330       .  A
C1394      C1395   1.388       .  A
C1395      H1401   1.082       .  S
O1396      C1397   1.330       .  A
C1397      C1398   1.389       .  A
C1398      H1402   1.082       .  S
C1403      C1408   1.381       .  A
C1403      C1404   1.400       .  A
C1403      O1409   1.321       .  A
C1404      C1405   1.402       .  A
C1404      H1415   1.082       .  S
C1405      C1414   1.353       .  A
C1405      C1406   1.382       .  A
C1406      C1407   1.399       .  A
C1406      O1412   1.320       .  A
C1407      C1408   1.401       .  A
C1407      H1416   1.082       .  S
C1408      C1411   1.352       .  A
O1409      C1410   1.329       .  A
C1410      C1411   1.392       .  A
C1411      H1417   1.083       .  S
O1412      C1413   1.329       .  A
C1413      C1414   1.391       .  A
C1414      H1418   1.083       .  S
C1419      C1424   1.380       .  A
C1419      C1420   1.402       .  A
C1419      O1425   1.312       .  A
C1420      C1421   1.398       .  A
C1420      H1431   1.082       .  S
C1421      C1430   1.363       .  A
C1421      C1422   1.380       .  A
C1422      C1423   1.404       .  A
C1422      O1428   1.314       .  A
C1423      C1424   1.400       .  A
C1423      H1432   1.082       .  S
C1424      C1427   1.366       .  A
O1425      C1426   1.330       .  A
C1426      C1427   1.390       .  A
C1427      H1433   1.082       .  S
O1428      C1429   1.331       .  A
C1429      C1430   1.389       .  A
C1430      H1434   1.082       .  S
C1435      C1440   1.381       .  A
C1435      C1436   1.397       .  A
C1435      O1441   1.312       .  A
C1436      C1437   1.396       .  A
C1436      H1447   1.082       .  S
C1437      C1446   1.356       .  A
C1437      C1438   1.381       .  A
C1438      C1439   1.404       .  A
C1438      O1444   1.317       .  A
C1439      C1440   1.402       .  A
C1439      H1448   1.082       .  S
C1440      C1443   1.362       .  A
O1441      C1442   1.327       .  A
C1442      C1443   1.390       .  A
C1443      H1449   1.082       .  S
O1444      C1445   1.330       .  A
C1445      C1446   1.386       .  A
C1446      H1450   1.082       .  S
C1451      C1456   1.381       .  A
C1451      C1452   1.398       .  A
C1451      O1457   1.313       .  A
C1452      C1453   1.397       .  A
C1452      H1463   1.082       .  S
C1453      C1462   1.356       .  A
C1453      C1454   1.381       .  A
C1454      C1455   1.405       .  A
C1454      O1460   1.319       .  A
C1455      C1456   1.403       .  A
C1455      H1464   1.082       .  S
C1456      C1459   1.364       .  A
O1457      C1458   1.327       .  A
C1458      C1459   1.391       .  A
C1459      H1465   1.082       .  S
O1460      C1461   1.331       .  A
C1461      C1462   1.387       .  A
C1462      H1466   1.083       .  S
C1467      C1472   1.381       .  A
C1467      C1468   1.403       .  A
C1467      O1473   1.318       .  A
C1468      C1469   1.402       .  A
C1468      H1479   1.083       .  S
C1469      C1478   1.363       .  A
C1469      C1470   1.381       .  A
C1470      C1471   1.400       .  A
C1470      O1476   1.315       .  A
C1471      C1472   1.398       .  A
C1471      H1480   1.083       .  S
C1472      C1475   1.357       .  A
O1473      C1474   1.330       .  A
C1474      C1475   1.388       .  A
C1475      H1481   1.083       .  S
O1476      C1477   1.329       .  A
C1477      C1478   1.390       .  A
C1478      H1482   1.083       .  S
C1483      C1488   1.382       .  A
C1483      C1484   1.401       .  A
C1483      O1489   1.318       .  A
C1485      C1494   1.358       .  A
C1485      C1486   1.381       .  A
C1486      O1492   1.320       .  A
C1487      C1488   1.403       .  A
C1487      H1496   1.082       .  S
C1488      C1491   1.359       .  A
O1489      C1490   1.328       .  A
C1490      C1491   1.391       .  A
C1491      H1497   1.082       .  S
O1492      C1493   1.330       .  A
C1493      C1494   1.390       .  A
C1494      H1498   1.083       .  S
C1499      C1504   1.381       .  A
C1499      C1500   1.403       .  A
C1499      O1505   1.319       .  A
C1500      C2043   1.402       .  A
C1500      H1511   1.083       .  S
C1501      C2042   1.402       .  A
C1501      C1510   1.360       .  A
C1501      C1502   1.381       .  A
C1502      C2045   1.402       .  A
C1502      O1508   1.319       .  A
C1503      C2044   1.402   1_545  A
C1503      C1504   1.401       .  A
C1503      H1512   1.083       .  S
C1504      C1507   1.359       .  A
O1505      C1506   1.329       .  A
C1506      C1507   1.390       .  A
C1507      H1513   1.083       .  S
O1508      C1509   1.330       .  A
C1509      C1510   1.391       .  A
C1510      H1514   1.083       .  S
C1515      C1520   1.381       .  A
C1515      C1516   1.403       .  A
C1515      O1521   1.319       .  A
C1516      C1517   1.403       .  A
C1516      H1527   1.083       .  S
C1517      C1526   1.362       .  A
C1517      C1518   1.380       .  A
C1518      C1519   1.406       .  A
C1518      O1524   1.322       .  A
C1519      C1520   1.405       .  A
C1519      H1528   1.083       .  S
C1520      C1523   1.364       .  A
O1521      C1522   1.330       .  A
C1522      C1523   1.390       .  A
C1523      H1529   1.083       .  S
O1524      C1525   1.332       .  A
C1525      C1526   1.392       .  A
C1526      H1530   1.083       .  S
C1531      C1536   1.379       .  A
C1531      C1532   1.407       .  A
C1531      O1537   1.327       .  A
C1532      H1543   1.082       .  S
C1533      C1542   1.363       .  A
C1533      C1534   1.380       .  A
C1534      O1540   1.326       .  A
C1535      C1536   1.407       .  A
C1535      H1544   1.082   1_655  S
C1536      C1539   1.359       .  A
O1537      C1538   1.333       .  A
C1538      C1539   1.397       .  A
C1539      H1545   1.082       .  S
O1540      C1541   1.333       .  A
C1541      C1542   1.394       .  A
C1542      H1546   1.082       .  S
C1547      C1552   1.380       .  A
C1547      C2090   1.405       .  A
C1547      O1553   1.325       .  A
C1548      C2089   1.405   1_545  A
C1548      C1549   1.406       .  A
C1548      H2101   1.082   1_545  S
C1549      C1558   1.358       .  A
C1549      C1550   1.379       .  A
C1550      C1551   1.406       .  A
C1550      O1556   1.326       .  A
C1551      C2094   1.408       .  A
C1551      H1560   1.082       .  S
C1552      C2093   1.408       .  A
C1552      C1555   1.361       .  A
O1553      C1554   1.332       .  A
C1554      C1555   1.394       .  A
C1555      H1561   1.083       .  S
O1556      C1557   1.333       .  A
C1557      C1558   1.397       .  A
C1558      H1562   1.081       .  S
H1559      C2090   1.082       .  S
C1563      C1568   1.379       .  A
C1563      C1564   1.408       .  A
C1563      O1569   1.319       .  A
C1564      C1565   1.405       .  A
C1564      H1575   1.082       .  S
C1565      C1574   1.371       .  A
C1565      C1566   1.377       .  A
C1566      C1567   1.407       .  A
C1566      O1572   1.316       .  A
C1567      C1568   1.405       .  A
C1567      H1576   1.082       .  S
C1568      C1571   1.370       .  A
O1569      C1570   1.333       .  A
C1570      C1571   1.394       .  A
C1571      H1577   1.082       .  S
O1572      C1573   1.334       .  A
C1573      C1574   1.394       .  A
C1574      H1578   1.082       .  S
C1579      C1584   1.381       .  A
C1579      C1580   1.403       .  A
C1579      O1585   1.319       .  A
C1580      C1581   1.403       .  A
C1580      H1591   1.083       .  S
C1581      C1590   1.361       .  A
C1581      C1582   1.381       .  A
C1582      C1583   1.403       .  A
C1582      O1588   1.319       .  A
C1583      C1584   1.402       .  A
C1583      H1592   1.083       .  S
C1584      C1587   1.360       .  A
O1585      C1586   1.331       .  A
C1586      C1587   1.391       .  A
C1587      H1593   1.083       .  S
O1588      C1589   1.331       .  A
C1589      C1590   1.392       .  A
C1590      H1594   1.083       .  S
C1595      C1600   1.381       .  A
C1595      C1596   1.401       .  A
C1595      O1601   1.317       .  A
C1596      C1597   1.400       .  A
C1596      H1607   1.083       .  S
C1597      C1606   1.359       .  A
C1597      C1598   1.381       .  A
C1598      C1599   1.403       .  A
C1598      O1604   1.319       .  A
C1599      C1600   1.403       .  A
C1599      H1608   1.083       .  S
C1600      C1603   1.361       .  A
O1601      C1602   1.329       .  A
C1602      C1603   1.392       .  A
C1603      H1609   1.083       .  S
O1604      C1605   1.331       .  A
C1605      C1606   1.390       .  A
C1606      H1610   1.083       .  S
C1611      C1616   1.381       .  A
C1611      C1612   1.402       .  A
C1611      O1617   1.317       .  A
C1612      C1613   1.401       .  A
C1612      H1623   1.083       .  S
C1613      C1622   1.361       .  A
C1613      C1614   1.380       .  A
C1614      C1615   1.403       .  A
C1614      O1620   1.318       .  A
C1615      C1616   1.402       .  A
C1615      H1624   1.083       .  S
C1616      C1619   1.363       .  A
O1617      C1618   1.330       .  A
C1618      C1619   1.391       .  A
C1619      H1625   1.083       .  S
O1620      C1621   1.331       .  A
C1621      C1622   1.391       .  A
C1622      H1626   1.083       .  S
Zn1627     O1631   1.957       .  S
Zn1627     O1632   2.004       .  S
Zn1627     O1636   2.011       .  S
Zn1627     O1643   2.003       .  S
Zn1628     O1631   1.990       .  S
Zn1628     O1633   2.081       .  S
Zn1628     O1635   2.081       .  S
Zn1628     O1639   2.088       .  S
Zn1629     O1631   1.966       .  S
Zn1629     O1634   2.020       .  S
Zn1629     O1637   2.005       .  S
Zn1629     O1640   2.016       .  S
Zn1630     O1631   1.961       .  S
Zn1630     O1638   2.008       .  S
Zn1630     O1641   1.992       .  S
Zn1630     O1642   2.027       .  S
O1632      C1644   1.272       .  A
O1633      C1645   1.281       .  A
O1634      C1646   1.272       .  A
O1635      C1644   1.281       .  A
O1636      C1646   1.272       .  A
O1637      C1645   1.272       .  A
O1638      C1647   1.271       .  A
O1639      C1648   1.282       .  A
O1640      C1647   1.271       .  A
O1641      C1648   1.272       .  A
O1642      C1649   1.273       .  A
O1643      C1649   1.270       .  A
C1644      C2083   1.481       .  S
C1645      C2112   1.481       .  S
C1646      C2128   1.470       .  S
C1647      C2147   1.468       .  S
C1648      C2096   1.479       .  S
C1649      C2160   1.469       .  S
C1650      H1651   1.110       .  S
C1650      C1656   1.557       .  S
C1650      C1655   1.550       .  S
C1650      C1654   1.551       .  S
C1652      H1653   1.112       .  S
C1652      C1658   1.529       .  S
C1652      C1657   1.527       .  S
C1652      C1659   1.526       .  S
C1654      C1657   1.376       .  D
C1654      C2099   1.496       .  S
C1655      C1658   1.376       .  D
C1655      C2080   1.498       .  S
C1656      C1659   1.377       .  D
C1656      C2115   1.496       .  S
C1657      C2048   1.473       .  S
C1658      C2032   1.473       .  S
C1659      C2064   1.476       .  S
Zn1660     O1664   1.941       .  S
Zn1660     O1665   1.978       .  S
Zn1660     O1669   1.988       .  S
Zn1660     O1676   1.982       .  S
Zn1661     O1664   1.960       .  S
Zn1661     O1666   2.007       .  S
Zn1661     O1668   2.014       .  S
Zn1661     O1672   2.043       .  S
Zn1662     O1664   1.964       .  S
Zn1662     O1667   2.033       .  S
Zn1662     O1670   2.030       .  S
Zn1662     O1673   2.003       .  S
Zn1663     O1664   1.961       .  S
Zn1663     O1671   2.028       .  S
Zn1663     O1674   2.017       .  S
Zn1663     O1675   2.030       .  S
O1665      C1677   1.268       .  A
O1666      C1678   1.274       .  A
O1667      C1679   1.272       .  A
O1668      C1677   1.271       .  A
O1669      C1679   1.267       .  A
O1670      C1678   1.275       .  A
O1671      C1680   1.275       .  A
O1672      C1681   1.276       .  A
O1673      C1680   1.273       .  A
O1674      C1681   1.274       .  A
O1675      C1682   1.273       .  A
O1676      C1682   1.268       .  A
C1677      C1984   1.456       .  S
C1678      C2035   1.466       .  S
C1679      C2019   1.461       .  S
C1680      C2051   1.466       .  S
C1681      C2067   1.475       .  S
C1682      C2000   1.459       .  S
Zn1683     O1687   1.969       .  S
Zn1683     O1688   2.035       .  S
Zn1683     O1692   2.034       .  S
Zn1683     O1699   2.037       .  S
Zn1684     O1687   1.967       .  S
Zn1684     O1689   2.029       .  S
Zn1684     O1691   2.034       .  S
Zn1684     O1695   2.046       .  S
Zn1685     O1687   1.969       .  S
Zn1685     O1690   2.021       .  S
Zn1685     O1693   2.023       .  S
Zn1685     O1696   2.052       .  S
Zn1686     O1687   1.930       .  S
Zn1686     O1694   1.951       .  S
Zn1686     O1697   1.958       .  S
Zn1686     O1698   1.954       .  S
O1688      C1700   1.276       .  A
O1689      C1701   1.275       .  A
O1690      C1702   1.275       .  A
O1691      C1700   1.277       .  A
O1692      C1702   1.276       .  A
O1693      C1701   1.275       .  A
O1694      C1703   1.264       .  A
O1695      C1704   1.275       .  A
O1696      C1703   1.274       .  A
O1697      C1704   1.264       .  A
O1698      C1705   1.264       .  A
O1699      C1705   1.274       .  A
C1700      C1891   1.476       .  S
C1701      C1904   1.469       .  S
C1702      C1923   1.474       .  S
C1703      C1952   1.465       .  S
C1704      C1971   1.463       .  S
C1705      C1936   1.460       .  S
C1706      H1707   1.111       .  S
C1706      C1712   1.535       .  S
C1706      C1711   1.537       .  S
C1706      C1710   1.538       .  S
C1708      H1709   1.111       .  S
C1708      C1714   1.537       .  S
C1708      C1713   1.535       .  S
C1708      C1715   1.538       .  S
C1710      C1713   1.370       .  D
C1710      C1840   1.478       .  S
C1711      C1714   1.370       .  D
C1711      C1872   1.474       .  S
C1712      C1715   1.370       .  D
C1712      C1856   1.471       .  S
C1713      C1907   1.473       .  S
C1714      C1920   1.474       .  S
C1715      C1888   1.476       .  S
Zn1716     O1720   1.963       .  S
Zn1716     O1721   2.026       .  S
Zn1716     O1725   2.036       .  S
Zn1716     O1732   2.021       .  S
Zn1717     O1720   1.964       .  S
Zn1717     O1722   2.043       .  S
Zn1717     O1724   2.022       .  S
Zn1717     O1728   2.026       .  S
Zn1718     O1720   1.926       .  S
Zn1718     O1723   1.958       .  S
Zn1718     O1726   1.957       .  S
Zn1718     O1729   1.954       .  S
Zn1719     O1720   1.966       .  S
Zn1719     O1727   2.037       .  S
Zn1719     O1730   2.024       .  S
Zn1719     O1731   2.031       .  S
O1721      C1733   1.276       .  A
O1722      C1734   1.273       .  A
O1723      C1735   1.265       .  A
O1724      C1733   1.275       .  A
O1725      C1735   1.273       .  A
O1726      C1734   1.264       .  A
O1727      C1736   1.273       .  A
O1728      C1737   1.276       .  A
O1729      C1736   1.264       .  A
O1730      C1737   1.275       .  A
O1731      C1738   1.276       .  A
O1732      C1738   1.274       .  A
C1733      C1875   1.469       .  S
C1734      C1795   1.461       .  S
C1735      C1811   1.462       .  S
C1736      C1827   1.459       .  S
C1737      C1859   1.469       .  S
C1738      C1843   1.470       .  S
Zn1739     O1743   1.914   1_554  S
Zn1739     O1748   1.952       .  S
Zn1740     O1747   2.036       .  S
Zn1741     O1743   1.955       .  S
Zn1741     O1746   2.034       .  S
Zn1741     O1749   2.002       .  S
Zn1742     O1753   2.022       .  S
Zn1742     O1754   2.044       .  S
O1744      C1756   1.265       .  A
O1745      C1757   1.271       .  A
O1746      C1758   1.274   1_556  A
O1747      C1756   1.274   1_556  A
O1748      C1758   1.264       .  A
O1749      C1757   1.272       .  A
O1750      C1759   1.273       .  A
O1751      C1760   1.272       .  A
O1752      C1759   1.272       .  A
O1753      C1760   1.273       .  A
O1754      C1761   1.275   1_556  A
O1755      C1761   1.265       .  A
C1756      C1824   1.458       .  S
C1757      C1987   1.457       .  S
C1758      C1792   1.458       .  S
C1759      C2016   1.459       .  S
C1760      C2003   1.461       .  S
C1761      C1808   1.463       .  S
Zn1762     O1771   2.013       .  S
Zn1762     O1778   2.039       .  S
Zn1763     O1768   2.013       .  S
Zn1763     O1774   2.041       .  S
Zn1764     O1775   2.052       .  S
Zn1765     O1766   1.925       .  S
O1767      C1779   1.272       .  A
O1768      C1780   1.274       .  A
O1769      C1781   1.275       .  A
O1770      C1779   1.274       .  A
O1771      C1781   1.273       .  A
O1772      C1780   1.274       .  A
O1773      C1782   1.266       .  A
O1774      C1783   1.274       .  A
O1775      C1782   1.276       .  A
O1776      C1783   1.266       .  A
O1777      C1784   1.266       .  A
O1778      C1784   1.275       .  A
C1779      C2163   1.467       .  S
C1780      C2144   1.466       .  S
C1781      C2131   1.471       .  S
C1782      C1968   1.465       .  S
C1783      C1955   1.464       .  S
C1784      C1939   1.461       .  S
C1785      C1790   1.380       .  A
C1785      C1786   1.402       .  A
C1785      O1791   1.312       .  A
C1786      C1787   1.399       .  A
C1786      H1797   1.082       .  S
C1787      C1796   1.364       .  A
C1787      C1788   1.381       .  A
C1788      C1789   1.401       .  A
C1788      O1794   1.311       .  A
C1789      C1790   1.397       .  A
C1789      H1798   1.082       .  S
C1790      C1793   1.362       .  A
O1791      C1792   1.330       .  A
C1792      C1793   1.388       .  A
C1793      H1799   1.082       .  S
O1794      C1795   1.329       .  A
C1795      C1796   1.390       .  A
C1796      H1800   1.082       .  S
C1801      C1806   1.382       .  A
C1801      C1802   1.399       .  A
C1801      O1807   1.320       .  A
C1802      C1803   1.401       .  A
C1802      H1813   1.082       .  S
C1803      C1812   1.353       .  A
C1803      C1804   1.382       .  A
C1804      C1805   1.399       .  A
C1804      O1810   1.319       .  A
C1805      C1806   1.400       .  A
C1805      H1814   1.082       .  S
C1806      C1809   1.352       .  A
O1807      C1808   1.328       .  A
C1808      C1809   1.391       .  A
C1809      H1815   1.083       .  S
O1810      C1811   1.328       .  A
C1811      C1812   1.391       .  A
C1812      H1816   1.083       .  S
C1817      C1822   1.381       .  A
C1817      C1818   1.402       .  A
C1817      O1823   1.311       .  A
C1818      C1819   1.398       .  A
C1818      H1829   1.082       .  S
C1819      C1828   1.363       .  A
C1819      C1820   1.381       .  A
C1820      C1821   1.400       .  A
C1820      O1826   1.311       .  A
C1821      C1822   1.397       .  A
C1821      H1830   1.082       .  S
C1822      C1825   1.362       .  A
O1823      C1824   1.330       .  A
C1824      C1825   1.388       .  A
C1825      H1831   1.082       .  S
O1826      C1827   1.329       .  A
C1827      C1828   1.389       .  A
C1828      H1832   1.082       .  S
C1833      C1838   1.380       .  A
C1833      C1834   1.403       .  A
C1833      O1839   1.317       .  A
C1834      H1845   1.083       .  S
C1835      C1844   1.362       .  A
C1835      C1836   1.380       .  A
C1836      O1842   1.320       .  A
C1837      C1838   1.405       .  A
C1837      H1846   1.083       .  S
C1838      C1841   1.366       .  A
O1839      C1840   1.330       .  A
C1840      C1841   1.391       .  A
C1841      H1847   1.083       .  S
O1842      C1843   1.332       .  A
C1843      C1844   1.390       .  A
C1844      H1848   1.083       .  S
C1849      C1854   1.381       .  A
C1849      C1850   1.401       .  A
C1849      O1855   1.316       .  A
C1850      H1861   1.083       .  S
C1851      C1860   1.360       .  A
C1851      C1852   1.380       .  A
C1852      O1858   1.320       .  A
C1853      C1854   1.404       .  A
C1853      H1862   1.083       .  S
C1854      C1857   1.364       .  A
O1855      C1856   1.328       .  A
C1856      C1857   1.389       .  A
C1857      H1863   1.083       .  S
O1858      C1859   1.332       .  A
C1859      C1860   1.389       .  A
C1860      H1864   1.083       .  S
C1865      C1870   1.381       .  A
C1865      C1866   1.403       .  A
C1865      O1871   1.317       .  A
C1866      C1867   1.402       .  A
C1866      H1877   1.083       .  S
C1867      C1876   1.363       .  A
C1867      C1868   1.381       .  A
C1868      C1869   1.404       .  A
C1868      O1874   1.318       .  A
C1869      C1870   1.403       .  A
C1869      H1878   1.083       .  S
C1870      C1873   1.364       .  A
O1871      C1872   1.330       .  A
C1872      C1873   1.389       .  A
C1873      H1879   1.083       .  S
O1874      C1875   1.331       .  A
C1875      C1876   1.391       .  A
C1876      H1880   1.083       .  S
C1881      C1886   1.381       .  A
C1881      C1882   1.403       .  A
C1881      O1887   1.318       .  A
C1882      H1893   1.083       .  S
C1883      C1892   1.363       .  A
C1883      C1884   1.380       .  A
C1884      O1890   1.322       .  A
C1885      C1886   1.406       .  A
C1885      H1894   1.083       .  S
C1886      C1889   1.366       .  A
O1887      C1888   1.330       .  A
C1888      C1889   1.390       .  A
C1889      H1895   1.083       .  S
O1890      C1891   1.333       .  A
C1891      C1892   1.391       .  A
C1892      H1896   1.083       .  S
C1897      C1902   1.380       .  A
C1897      O1903   1.319       .  A
C1898      C1899   1.403       .  A
C1898      H1909   1.082       .  S
C1899      C1908   1.364       .  A
C1899      C1900   1.381       .  A
C1900      C1901   1.403       .  A
C1900      O1906   1.316       .  A
C1901      H1910   1.082       .  S
C1902      C1905   1.362       .  A
O1903      C1904   1.331       .  A
C1904      C1905   1.391       .  A
C1905      H1911   1.082       .  S
O1906      C1907   1.330       .  A
C1907      C1908   1.388       .  A
C1908      H1912   1.082       .  S
C1913      C1918   1.381       .  A
C1913      C1914   1.404       .  A
C1913      O1919   1.320       .  A
C1914      C1915   1.404       .  A
C1914      H1925   1.082       .  S
C1915      C1924   1.362       .  A
C1915      C1916   1.380       .  A
C1916      C1917   1.404       .  A
C1916      O1922   1.320       .  A
C1917      C1918   1.404       .  A
C1917      H1926   1.082       .  S
C1918      C1921   1.363       .  A
O1919      C1920   1.330       .  A
C1920      C1921   1.389       .  A
C1921      H1927   1.082       .  S
O1922      C1923   1.332       .  A
C1923      C1924   1.392       .  A
C1924      H1928   1.082       .  S
C1929      C1934   1.381       .  A
C1929      C1930   1.402       .  A
C1929      O1935   1.312       .  A
C1930      C1931   1.399       .  A
C1930      H1941   1.082       .  S
C1931      C1940   1.363       .  A
C1931      C1932   1.381       .  A
C1932      C1933   1.401       .  A
C1932      O1938   1.312       .  A
C1933      C1934   1.398       .  A
C1933      H1942   1.082       .  S
C1934      C1937   1.362       .  A
O1935      C1936   1.330       .  A
C1936      C1937   1.388       .  A
C1937      H1943   1.082       .  S
O1938      C1939   1.330       .  A
C1939      C1940   1.389       .  A
C1940      H1944   1.082       .  S
C1945      C1950   1.381       .  A
C1945      C1946   1.400       .  A
C1945      O1951   1.321       .  A
C1946      C1947   1.402       .  A
C1946      H1957   1.082       .  S
C1947      C1956   1.353       .  A
C1947      C1948   1.382       .  A
C1948      C1949   1.399       .  A
C1948      O1954   1.320       .  A
C1949      C1950   1.401       .  A
C1949      H1958   1.082       .  S
C1950      C1953   1.352       .  A
O1951      C1952   1.329       .  A
C1952      C1953   1.391       .  A
C1953      H1959   1.083       .  S
O1954      C1955   1.329       .  A
C1955      C1956   1.391       .  A
C1956      H1960   1.083       .  S
C1961      C1966   1.380       .  A
C1961      C1962   1.402       .  A
C1961      O1967   1.312       .  A
C1962      C1963   1.398       .  A
C1962      H1973   1.082       .  S
C1963      C1972   1.363       .  A
C1963      C1964   1.380       .  A
C1964      C1965   1.404       .  A
C1964      O1970   1.314       .  A
C1965      C1966   1.400       .  A
C1965      H1974   1.082       .  S
C1966      C1969   1.366       .  A
O1967      C1968   1.330       .  A
C1968      C1969   1.390       .  A
C1969      H1975   1.082       .  S
O1970      C1971   1.331       .  A
C1971      C1972   1.389       .  A
C1972      H1976   1.082       .  S
C1977      C1982   1.381       .  A
C1977      C1978   1.397       .  A
C1977      O1983   1.312       .  A
C1978      C1979   1.396       .  A
C1978      H1989   1.082       .  S
C1979      C1988   1.356       .  A
C1979      C1980   1.381       .  A
C1980      C1981   1.404       .  A
C1980      O1986   1.317       .  A
C1981      C1982   1.402       .  A
C1981      H1990   1.082       .  S
C1982      C1985   1.362       .  A
O1983      C1984   1.327       .  A
C1984      C1985   1.390       .  A
C1985      H1991   1.082       .  S
O1986      C1987   1.330       .  A
C1987      C1988   1.386       .  A
C1988      H1992   1.082       .  S
C1993      C1998   1.381       .  A
C1993      C1994   1.398       .  A
C1993      O1999   1.313       .  A
C1994      C1995   1.397       .  A
C1994      H2005   1.082       .  S
C1995      C2004   1.356       .  A
C1995      C1996   1.381       .  A
C1996      C1997   1.405       .  A
C1996      O2002   1.319       .  A
C1997      C1998   1.403       .  A
C1997      H2006   1.082       .  S
C1998      C2001   1.364       .  A
O1999      C2000   1.327       .  A
C2000      C2001   1.391       .  A
C2001      H2007   1.082       .  S
O2002      C2003   1.331       .  A
C2003      C2004   1.387       .  A
C2004      H2008   1.083       .  S
C2009      C2014   1.381       .  A
C2009      C2010   1.403       .  A
C2009      O2015   1.318       .  A
C2010      C2011   1.402       .  A
C2010      H2021   1.083       .  S
C2011      C2020   1.363       .  A
C2011      C2012   1.381       .  A
C2012      C2013   1.400       .  A
C2012      O2018   1.315       .  A
C2013      C2014   1.398       .  A
C2013      H2022   1.083       .  S
C2014      C2017   1.357       .  A
O2015      C2016   1.330       .  A
C2016      C2017   1.388       .  A
C2017      H2023   1.083       .  S
O2018      C2019   1.328       .  A
C2019      C2020   1.390       .  A
C2020      H2024   1.083       .  S
C2025      C2030   1.382       .  A
C2025      C2026   1.401       .  A
C2025      O2031   1.318       .  A
C2027      C2036   1.358       .  A
C2027      C2028   1.381       .  A
C2028      O2034   1.320       .  A
C2029      C2030   1.403       .  A
C2029      H2038   1.082       .  S
C2030      C2033   1.359       .  A
O2031      C2032   1.328       .  A
C2032      C2033   1.391       .  A
C2033      H2039   1.082       .  S
O2034      C2035   1.330       .  A
C2035      C2036   1.390       .  A
C2036      H2040   1.083       .  S
C2041      C2046   1.381       .  A
C2041      C2042   1.403       .  A
C2041      O2047   1.319       .  A
C2042      H2053   1.083       .  S
C2043      C2052   1.360   1_545  A
C2043      C2044   1.381   1_545  A
C2044      O2050   1.319       .  A
C2045      C2046   1.401       .  A
C2045      H2054   1.083       .  S
C2046      C2049   1.359       .  A
O2047      C2048   1.329       .  A
C2048      C2049   1.390       .  A
C2049      H2055   1.083       .  S
O2050      C2051   1.329       .  A
C2051      C2052   1.391       .  A
C2052      H2056   1.083       .  S
C2057      C2062   1.381       .  A
C2057      C2058   1.403       .  A
C2057      O2063   1.319       .  A
C2058      C2059   1.403       .  A
C2058      H2069   1.083       .  S
C2059      C2068   1.362       .  A
C2059      C2060   1.380       .  A
C2060      C2061   1.406       .  A
C2060      O2066   1.322       .  A
C2061      C2062   1.405       .  A
C2061      H2070   1.083       .  S
C2062      C2065   1.364       .  A
O2063      C2064   1.330       .  A
C2064      C2065   1.390       .  A
C2065      H2071   1.083       .  S
O2066      C2067   1.332       .  A
C2067      C2068   1.392       .  A
C2068      H2072   1.083       .  S
C2073      C2078   1.379       .  A
C2073      C2074   1.407       .  A
C2073      O2079   1.327       .  A
C2074      H2085   1.082       .  S
C2075      C2084   1.363       .  A
C2075      C2076   1.380       .  A
C2076      O2082   1.326       .  A
C2077      C2078   1.407       .  A
C2077      H2086   1.082   1_655  S
C2078      C2081   1.359       .  A
O2079      C2080   1.333       .  A
C2080      C2081   1.397       .  A
C2081      H2087   1.082       .  S
O2082      C2083   1.333       .  A
C2083      C2084   1.394       .  A
C2084      H2088   1.082       .  S
C2089      C2094   1.380   1_565  A
C2089      O2095   1.325       .  A
C2090      C2091   1.407       .  A
C2091      C2100   1.358       .  A
C2091      C2092   1.379       .  A
C2092      C2093   1.406       .  A
C2092      O2098   1.326       .  A
C2093      H2102   1.082       .  S
C2094      C2097   1.361   1_545  A
O2095      C2096   1.332       .  A
C2096      C2097   1.394       .  A
C2097      H2103   1.083       .  S
O2098      C2099   1.333       .  A
C2099      C2100   1.397       .  A
C2100      H2104   1.081       .  S
C2105      C2110   1.379       .  A
C2105      C2106   1.408       .  A
C2105      O2111   1.319       .  A
C2106      C2107   1.405       .  A
C2106      H2117   1.082       .  S
C2107      C2116   1.371       .  A
C2107      C2108   1.377       .  A
C2108      C2109   1.407       .  A
C2108      O2114   1.316       .  A
C2109      C2110   1.405       .  A
C2109      H2118   1.082       .  S
C2110      C2113   1.370       .  A
O2111      C2112   1.333       .  A
C2112      C2113   1.394       .  A
C2113      H2119   1.082       .  S
O2114      C2115   1.334       .  A
C2115      C2116   1.394       .  A
C2116      H2120   1.082       .  S
C2121      C2126   1.381       .  A
C2121      C2122   1.403       .  A
C2121      O2127   1.319       .  A
C2122      C2123   1.403       .  A
C2122      H2133   1.083       .  S
C2123      C2132   1.361       .  A
C2123      C2124   1.381       .  A
C2124      C2125   1.403       .  A
C2124      O2130   1.319       .  A
C2125      C2126   1.402       .  A
C2125      H2134   1.083       .  S
C2126      C2129   1.360       .  A
O2127      C2128   1.331       .  A
C2128      C2129   1.391       .  A
C2129      H2135   1.083       .  S
O2130      C2131   1.331       .  A
C2131      C2132   1.392       .  A
C2132      H2136   1.083       .  S
C2137      C2142   1.381       .  A
C2137      C2138   1.401       .  A
C2137      O2143   1.317       .  A
C2138      C2139   1.400       .  A
C2138      H2149   1.083       .  S
C2139      C2148   1.359       .  A
C2139      C2140   1.381       .  A
C2140      C2141   1.403       .  A
C2140      O2146   1.319       .  A
C2141      C2142   1.403       .  A
C2141      H2150   1.083       .  S
C2142      C2145   1.361       .  A
O2143      C2144   1.329       .  A
C2144      C2145   1.392       .  A
C2145      H2151   1.083       .  S
O2146      C2147   1.331       .  A
C2147      C2148   1.390       .  A
C2148      H2152   1.083       .  S
C2153      C2158   1.381       .  A
C2153      C2154   1.402       .  A
C2153      O2159   1.317       .  A
C2154      C2155   1.401       .  A
C2154      H2165   1.083       .  S
C2155      C2164   1.361       .  A
C2155      C2156   1.380       .  A
C2156      C2157   1.403       .  A
C2156      O2162   1.318       .  A
C2157      C2158   1.402       .  A
C2157      H2166   1.083       .  S
C2158      C2161   1.363       .  A
O2159      C2160   1.330       .  A
C2160      C2161   1.391       .  A
C2161      H2167   1.083       .  S
O2162      C2163   1.331       .  A
C2163      C2164   1.391       .  A
C2164      H2168   1.083       .  S
