geometry optimzed in LAMMPS
_audit_creation_date              2020-12-01 
_audit_creation_method            'lammps2cif' 
_symmetry_space_group_name_H-M    'P1' 
_symmetry_Int_Tables_number       1 
_symmetry_cell_setting            triclinic 
loop_ 
_symmetry_equiv_pos_as_xyz 
  x,y,z 
_cell_length_a                    104.31674359 
_cell_length_b                    104.45778739970045 
_cell_length_c                    52.136020358122856 
_cell_angle_alpha                 90.10962081492481 
_cell_angle_beta                  89.73316666331915 
_cell_angle_gamma                 119.56436195640352 
loop_ 
_atom_site_label 
_atom_site_type_symbol 
_atom_site_fract_x 
_atom_site_fract_y 
_atom_site_fract_z 
_atom_site_charge 
N1          N  0.46436677  0.93534880  0.80201174    -0.26900
N2          N  0.46814271  0.93860605  0.82633223    -0.34800
C3          C  0.47732570  0.95313805  0.82864368     0.01400
C4          C  0.47957543  0.95956194  0.80469186     0.07500
C5          C  0.47103722  0.94795095  0.78822459    -0.05600
H6          H  0.48152003  0.95871346  0.84673272     0.08100
H7          H  0.46965674  0.94865942  0.76781658     0.09300
Cu8        Cu  0.45983914  0.92378647  0.85635931     0.44200
Cu9        Cu  0.44990332  0.91367826  0.78982572     0.42000
Cu10       Cu  0.43165900  0.88748409  0.84326241     0.43900
N11         N  0.44959438  0.90821154  0.88482042    -0.34300
N12         N  0.43888870  0.89471118  0.88021840    -0.28500
C13         C  0.43468462  0.88719069  0.90247842    -0.04600
C14         C  0.44317802  0.89649346  0.92207928     0.07600
C15         C  0.45251800  0.90970613  0.91003440     0.01400
H16         H  0.42640773  0.87570580  0.90406297     0.09000
H17         H  0.46085436  0.91971759  0.91895636     0.08100
N18         N  0.42854884  0.88189322  0.80470960    -0.35700
N19         N  0.43531286  0.89095837  0.78532070    -0.27900
C20         C  0.43158680  0.88302053  0.76341306    -0.03200
C21         C  0.42204175  0.86831118  0.76937511     0.05500
C22         C  0.42034742  0.86814203  0.79570107     0.03500
H23         H  0.43563665  0.88761866  0.74459741     0.08700
H24         H  0.41410974  0.85855825  0.80766760     0.07500
N25         N  0.46671389  0.93227957  0.23620069    -0.26900
N26         N  0.46866671  0.93642897  0.21192019    -0.34800
C27         C  0.47589696  0.95117385  0.21062263     0.01400
C28         C  0.47877282  0.95678706  0.23528732     0.07500
C29         C  0.47271657  0.94442948  0.25108618    -0.05600
H30         H  0.47895882  0.95736098  0.19289218     0.08100
H31         H  0.47242926  0.94423001  0.27182204     0.09300
Cu32       Cu  0.46135835  0.92211732  0.18128615     0.44200
Cu33       Cu  0.45582851  0.91006792  0.24692634     0.42000
Cu34       Cu  0.44256170  0.88338427  0.19313677     0.43900
N35         N  0.45304275  0.90669999  0.15237091    -0.34300
N36         N  0.44622087  0.89233830  0.15625760    -0.28500
C37         C  0.44221428  0.88548916  0.13333588    -0.04600
C38         C  0.44655993  0.89612355  0.11427543     0.07600
C39         C  0.45350568  0.90941411  0.12714609     0.01400
H40         H  0.43637327  0.87367560  0.13074775     0.09000
H41         H  0.45870810  0.92031712  0.11881884     0.08100
N42         N  0.43972824  0.87765794  0.23198916    -0.35700
N43         N  0.44452941  0.88713914  0.25128409    -0.27900
C44         C  0.44076141  0.87956365  0.27354217    -0.03200
C45         C  0.43305331  0.86461714  0.26810948     0.05500
C46         C  0.43274398  0.86388559  0.24153466     0.03500
H47         H  0.44328476  0.88457966  0.29235788     0.08700
H48         H  0.42798040  0.85404195  0.22987786     0.07500
N49         N  0.54342911  0.09414405  0.80787105    -0.26900
N50         N  0.53914124  0.09009755  0.83181958    -0.34800
C51         C  0.53067119  0.07541481  0.83298292     0.01400
C52         C  0.52934207  0.06969983  0.80860129     0.07500
C53         C  0.53775362  0.08190033  0.79310498    -0.05600
H54         H  0.52604880  0.06931024  0.85052518     0.08100
H55         H  0.53948310  0.08186686  0.77263448     0.09300
Cu56       Cu  0.54505016  0.10427648  0.86263420     0.44200
Cu57       Cu  0.55664141  0.11647530  0.79770716     0.42000
Cu58       Cu  0.56847819  0.14271246  0.85224000     0.43900
N59         N  0.55281443  0.11931767  0.89222781    -0.34300
N60         N  0.56190125  0.13352731  0.88877123    -0.28500
C61         C  0.56573958  0.14010937  0.91190806    -0.04600
C62         C  0.55859775  0.12948080  0.93068404     0.07600
C63         C  0.55046053  0.11646766  0.91745443     0.01400
H64         H  0.57324991  0.15171701  0.91485440     0.09000
H65         H  0.54377974  0.10561656  0.92559880     0.08100
N66         N  0.57279879  0.14888285  0.81365971    -0.35700
N67         N  0.56886561  0.13959127  0.79410391    -0.27900
C68         C  0.57341871  0.14744633  0.77213956    -0.03200
C69         C  0.58048566  0.16236432  0.77804861     0.05500
C70         C  0.57976083  0.16277642  0.80457102     0.03500
H71         H  0.57133280  0.14263323  0.75317018     0.08700
H72         H  0.58399755  0.17251488  0.81644788     0.07500
N73         N  0.55074668  0.09086158  0.24528709    -0.26900
N74         N  0.55134883  0.08689106  0.22141868    -0.34800
C75         C  0.54499386  0.07220732  0.22008445     0.01400
C76         C  0.53992288  0.06642381  0.24416255     0.07500
C77         C  0.54375566  0.07857941  0.25982072    -0.05600
H78         H  0.54365011  0.06612432  0.20254061     0.08100
H79         H  0.54159423  0.07850863  0.28014525     0.09300
Cu80       Cu  0.55926448  0.10092140  0.19049409     0.44200
Cu81       Cu  0.55945793  0.11301697  0.25564198     0.42000
Cu82       Cu  0.57205052  0.13868033  0.20025771     0.43900
N83         N  0.56504062  0.11557223  0.16055499    -0.34300
N84         N  0.56970511  0.12970583  0.16396953    -0.28500
C85         C  0.57156960  0.13617175  0.14091362    -0.04600
C86         C  0.56793653  0.12553734  0.12207864     0.07600
C87         C  0.56375508  0.11258941  0.13534825     0.01400
H88         H  0.57498068  0.14767589  0.13809505     0.09000
H89         H  0.55936052  0.10165170  0.12742003     0.08100
N90         N  0.57385183  0.14500762  0.23836343    -0.35700
N91         N  0.56962914  0.13601884  0.25836453    -0.27900
C92         C  0.57342312  0.14418784  0.27995338    -0.03200
C93         C  0.58035297  0.15896803  0.27316515     0.05500
C94         C  0.58027737  0.15899309  0.24667013     0.03500
H95         H  0.57136905  0.13968347  0.29915619     0.08700
H96         H  0.58505035  0.16853523  0.23424832     0.07500
N97         N  0.92983245  0.46967866  0.80122089    -0.26900
N98         N  0.93397508  0.47008074  0.82528940    -0.34800
C99         C  0.94872999  0.47763549  0.82657926     0.01400
C100        C  0.95429228  0.48241599  0.80224815     0.07500
C101        C  0.94200131  0.47718128  0.78655502    -0.05600
H102        H  0.95496334  0.47968983  0.84410193     0.08100
H103        H  0.94191172  0.47849280  0.76598894     0.09300
Cu104      Cu  0.91989198  0.46129167  0.85620961     0.44200
Cu105      Cu  0.90771764  0.45854343  0.78990441     0.42000
Cu106      Cu  0.88163275  0.44482365  0.84372726     0.43900
N107        N  0.90431359  0.45438085  0.88507543    -0.34300
N108        N  0.89008037  0.44854855  0.88055992    -0.28500
C109        C  0.88282010  0.44570814  0.90306509    -0.04600
C110        C  0.89304005  0.45003164  0.92270689     0.07600
C111        C  0.90654625  0.45539873  0.91051942     0.01400
H112        H  0.87097839  0.44067938  0.90491018     0.09000
H113        H  0.91724827  0.45996457  0.91947187     0.08100
N114        N  0.87554267  0.44139022  0.80546267    -0.35700
N115        N  0.88478924  0.44624016  0.78578554    -0.27900
C116        C  0.87690862  0.44194920  0.76390979    -0.03200
C117        C  0.86201836  0.43389764  0.77014715     0.05500
C118        C  0.86166123  0.43394888  0.79669909     0.03500
H119        H  0.88166494  0.44447696  0.74485040     0.08700
H120        H  0.85200506  0.42926341  0.80892484     0.07500
N121        N  0.93092368  0.47932733  0.23384954    -0.26900
N122        N  0.93475634  0.48317186  0.20967367    -0.34800
C123        C  0.94938633  0.49221251  0.20829425     0.01400
C124        C  0.95514441  0.49425753  0.23276569     0.07500
C125        C  0.94313382  0.48577728  0.24849065    -0.05600
H126        H  0.95543065  0.49667211  0.19061903     0.08100
H127        H  0.94324928  0.48450189  0.26906282     0.09300
Cu128      Cu  0.92028405  0.47558727  0.17909934     0.44200
Cu129      Cu  0.90909070  0.46585870  0.24539453     0.42000
Cu130      Cu  0.88227360  0.45141649  0.19303610     0.43900
N131        N  0.90447348  0.46545082  0.15099210    -0.34300
N132        N  0.89047125  0.45613322  0.15602883    -0.28500
C133        C  0.88316504  0.45102985  0.13380874    -0.04600
C134        C  0.89305667  0.45767664  0.11387054     0.07600
C135        C  0.90646584  0.46666835  0.12546946     0.01400
H136        H  0.87151170  0.44324749  0.13229343     0.09000
H137        H  0.91695855  0.47342093  0.11606185     0.08100
N138        N  0.87672461  0.44916883  0.23153239    -0.35700
N139        N  0.88627543  0.45400271  0.25064029    -0.27900
C140        C  0.87875403  0.45054927  0.27298321    -0.03200
C141        C  0.86380872  0.44345177  0.26758632     0.05500
C142        C  0.86297318  0.44269495  0.24113252     0.03500
H143        H  0.88378753  0.45323960  0.29175560     0.08700
H144        H  0.85308464  0.43763133  0.22962196     0.07500
N145        N  0.08828035  0.55614404  0.79667672    -0.26900
N146        N  0.08399269  0.55828188  0.81938371    -0.34800
C147        C  0.06925809  0.55167614  0.82010171     0.01400
C148        C  0.06382410  0.54490369  0.79677642    -0.01500
C149        C  0.07622660  0.54797014  0.78226145    -0.05600
H150        H  0.06292786  0.55154184  0.83670316     0.08100
H151        H  0.07651059  0.54468916  0.76267578     0.09300
Cu152      Cu  0.09793450  0.56923022  0.84933405     0.44200
Cu153      Cu  0.11050267  0.56486277  0.78753314     0.42000
Cu154      Cu  0.13633106  0.58682128  0.84007995     0.43900
N155        N  0.11257686  0.57815546  0.87917115    -0.34300
N156        N  0.12699982  0.58482759  0.87613862    -0.28500
C157        C  0.13338496  0.58822557  0.89943196    -0.04600
C158        C  0.12235937  0.58349358  0.91800388     0.07600
C159        C  0.10932930  0.57703419  0.90425631     0.01400
H160        H  0.14512764  0.59330326  0.90262403     0.09000
H161        H  0.09822928  0.57109604  0.91181639     0.08100
N162        N  0.14243407  0.58448003  0.80313410    -0.35700
N163        N  0.13342656  0.57622245  0.78474580    -0.27900
C164        C  0.14151382  0.57679783  0.76412812    -0.03200
C165        C  0.15633594  0.58580957  0.76973814     0.05500
C166        C  0.15637350  0.59062871  0.79455514     0.03500
H167        H  0.13688408  0.57102415  0.74636085     0.08700
H168        H  0.16576118  0.59830727  0.80566394     0.07500
N169        N  0.08878553  0.56105095  0.23468654    -0.26900
N170        N  0.08439057  0.55715700  0.21077230    -0.34800
C171        C  0.06966874  0.54878377  0.21036036     0.01400
C172        C  0.06441867  0.54727071  0.23515340     0.07500
C173        C  0.07680911  0.55531755  0.25016197    -0.05600
H174        H  0.06323243  0.54414208  0.19318143     0.08100
H175        H  0.07712020  0.55659560  0.27078355     0.09300
Cu176      Cu  0.09817961  0.56306573  0.17917644     0.44200
Cu177      Cu  0.11106581  0.57326270  0.24442897     0.42000
Cu178      Cu  0.13676185  0.58279169  0.18935509     0.43900
N179        N  0.11322398  0.56996853  0.14933737    -0.34300
N180        N  0.12761220  0.57725903  0.15285867    -0.28500
C181        C  0.13437760  0.58044268  0.12979838    -0.04600
C182        C  0.12366679  0.57499875  0.11078176     0.07600
C183        C  0.11040286  0.56834092  0.12407825     0.01400
H184        H  0.14620098  0.58622524  0.12722702     0.09000
H185        H  0.09944422  0.56302033  0.11598701     0.08100
N186        N  0.14311850  0.58727900  0.22761347    -0.35700
N187        N  0.13404126  0.58412939  0.24740953    -0.27900
C188        C  0.14205585  0.58846833  0.26912623    -0.03200
C189        C  0.15682421  0.59442689  0.26272819     0.05500
C190        C  0.15704611  0.59358174  0.23624839     0.03500
H191        H  0.13744577  0.58700534  0.28822854     0.08700
H192        H  0.16665069  0.59726933  0.22405844     0.07500
C193        C  0.76903254  0.39354644  0.66167694     0.86900
C194        C  0.75870475  0.39980482  0.66826988    -0.53400
C195        C  0.74627952  0.39414897  0.65381973     0.09800
C196        C  0.74508199  0.38275034  0.63392207     0.20800
C197        C  0.75887228  0.37668925  0.66435306    -0.54100
C198        C  0.74640715  0.37091914  0.64952998     0.09900
C199        C  0.77184499  0.39624138  0.63271627    -0.53600
C200        C  0.75942820  0.39064545  0.61797781     0.10500
H201        H  0.76035027  0.40754560  0.68337910     0.15000
H202        H  0.73480585  0.37829148  0.62260994     0.00700
H203        H  0.76137148  0.36995813  0.67694737     0.15300
H204        H  0.78287555  0.40214637  0.62460293     0.15100
C205        C  0.62708080  0.25305032  0.66010713     0.86900
C206        C  0.64375570  0.26285052  0.66562023    -0.53400
C207        C  0.65046971  0.27551148  0.65147440     0.09800
C208        C  0.64018934  0.27714261  0.63248582     0.20800
C209        C  0.62062638  0.26346580  0.66348958    -0.54100
C210        C  0.62739002  0.27599750  0.64891235     0.09900
C211        C  0.62662003  0.25045020  0.63068405    -0.53600
C212        C  0.63340784  0.26304338  0.61636517     0.10500
H213        H  0.64966097  0.26018574  0.67980994     0.15000
H214        H  0.64589127  0.28742173  0.62100514     0.00700
H215        H  0.61156823  0.26115251  0.67648059     0.15300
H216        H  0.62192454  0.23981284  0.62142072     0.15100
C217        C  0.63118381  0.39629821  0.65591148     0.86900
C218        C  0.62683190  0.38025031  0.66222722    -0.53400
C219        C  0.63440859  0.37489244  0.64865820     0.09800
C220        C  0.64564380  0.38611658  0.62960802     0.20800
C221        C  0.64804185  0.40513044  0.65932227    -0.54100
C222        C  0.65561255  0.39979162  0.64577295     0.09900
C223        C  0.62906142  0.39613216  0.62650622    -0.53600
C224        C  0.63672479  0.39093701  0.61279726     0.10500
H225        H  0.61843183  0.37369011  0.67630516     0.15000
H226        H  0.65171429  0.38173712  0.61844400     0.00700
H227        H  0.65350642  0.41463676  0.67184104     0.15300
H228        H  0.62211201  0.39948259  0.61675405     0.15100
C229        C  0.77231327  0.39446439  0.38017756     0.86900
C230        C  0.76118225  0.37808785  0.37432052    -0.53400
C231        C  0.74857905  0.37234038  0.38874529     0.09800
C232        C  0.74809420  0.38347844  0.40740687     0.20800
C233        C  0.76314067  0.40220391  0.37616098    -0.54100
C234        C  0.75042798  0.39639702  0.39027654     0.09900
C235        C  0.77471200  0.39484023  0.40937712    -0.53600
C236        C  0.76207731  0.38920385  0.42367122     0.10500
H237        H  0.76235234  0.37163743  0.35930015     0.15000
H238        H  0.73784405  0.37894921  0.41902598     0.00700
H239        H  0.76633661  0.41130484  0.36292670     0.15300
H240        H  0.78554583  0.39936693  0.41799897     0.15100
C241        C  0.63210927  0.25309708  0.37866751     0.86900
C242        C  0.62552665  0.26318180  0.37341419    -0.53400
C243        C  0.63175692  0.27585783  0.38734942     0.09800
C244        C  0.64396412  0.27744222  0.40549454     0.20800
C245        C  0.64889848  0.26320092  0.37403424    -0.54100
C246        C  0.65493218  0.27590206  0.38797983     0.09900
C247        C  0.63091736  0.25073696  0.40799299    -0.53600
C248        C  0.63707864  0.26345719  0.42206642     0.10500
H249        H  0.61710150  0.26078142  0.35910040     0.15000
H250        H  0.64899842  0.28786254  0.41665154     0.00700
H251        H  0.65574801  0.26098092  0.36121471     0.15300
H252        H  0.62552190  0.23990648  0.41680621     0.15100
C253        C  0.63076558  0.39371992  0.37688848     0.86900
C254        C  0.64758975  0.40066310  0.37303012    -0.53400
C255        C  0.65361280  0.39357259  0.38598455     0.09800
C256        C  0.64254409  0.38049031  0.40205335     0.20800
C257        C  0.62436148  0.37728990  0.37000967    -0.54100
C258        C  0.63059049  0.37041381  0.38307290     0.09900
C259        C  0.62908002  0.39378020  0.40641361    -0.53600
C260        C  0.63504299  0.38668310  0.41944428     0.10500
H261        H  0.65408777  0.41009480  0.36076314     0.15000
H262        H  0.64769872  0.37497707  0.41263811     0.00700
H263        H  0.61550716  0.37160970  0.35632127     0.15300
H264        H  0.62439906  0.39940624  0.41687018     0.15100
C265        C  0.39273038  0.63789540  0.65969438     0.86900
C266        C  0.39746272  0.65384048  0.66744704    -0.53400
C267        C  0.39150748  0.66032961  0.65286445     0.09800
C268        C  0.38112729  0.65035363  0.63184692     0.20800
C269        C  0.37557786  0.62994457  0.66065245    -0.54100
C270        C  0.36950286  0.63660541  0.64622648     0.09900
C271        C  0.39610467  0.63846750  0.63087543    -0.53600
C272        C  0.39001261  0.64487219  0.61621452     0.10500
H273        H  0.40484218  0.65950084  0.68329670     0.15000
H274        H  0.37651261  0.65596789  0.62013438     0.00700
H275        H  0.36872229  0.61988852  0.67095781     0.15300
H276        H  0.40223273  0.63353987  0.62261422     0.15100
C277        C  0.38447075  0.77292339  0.66807088     0.86900
C278        C  0.36864728  0.76040621  0.67341690    -0.53400
C279        C  0.36413520  0.74824419  0.65816446     0.09800
C280        C  0.37596330  0.74980400  0.63864421     0.20800
C281        C  0.39393723  0.76530135  0.67044081    -0.54100
C282        C  0.38952311  0.75330933  0.65501372     0.09900
C283        C  0.38487929  0.77611762  0.63914168    -0.53600
C284        C  0.38028109  0.76405519  0.62375216     0.10500
H285        H  0.36170528  0.76108493  0.68833211     0.15000
H286        H  0.37245148  0.74012607  0.62596047     0.00700
H287        H  0.40317870  0.76851431  0.68322025     0.15300
H288        H  0.38861638  0.78706828  0.63147909     0.15100
C289        C  0.24757938  0.62997713  0.65693424     0.86900
C290        C  0.25914367  0.62468793  0.65804909    -0.53400
C291        C  0.27136269  0.63280681  0.64304221     0.09800
C292        C  0.27086144  0.64526013  0.62833084     0.20800
C293        C  0.25658631  0.64631885  0.66441274    -0.54100
C294        C  0.26856132  0.65430944  0.64922758     0.09900
C295        C  0.24428341  0.62984968  0.62824343    -0.53600
C296        C  0.25642430  0.63755629  0.61314469     0.10500
H297        H  0.25850843  0.61613844  0.67052935     0.15000
H298        H  0.28078680  0.65181868  0.61626177     0.00700
H299        H  0.25404440  0.65103221  0.68093690     0.15300
H300        H  0.23318244  0.62397322  0.62059202     0.15100
C301        C  0.38776834  0.63209667  0.37860088     0.86900
C302        C  0.37127330  0.62767708  0.37498533    -0.53400
C303        C  0.36631492  0.63491807  0.39083535     0.09800
C304        C  0.37846284  0.64572177  0.40908535     0.20800
C305        C  0.39577994  0.64895503  0.37498609    -0.54100
C306        C  0.39096938  0.65608990  0.39099046     0.09900
C307        C  0.38909341  0.62966804  0.40731726    -0.53600
C308        C  0.38423501  0.63675206  0.42308283     0.10500
H309        H  0.36433467  0.62040346  0.36007680     0.15000
H310        H  0.37507491  0.65141484  0.42310483     0.00700
H311        H  0.40410633  0.65466858  0.36032040     0.15300
H312        H  0.39364987  0.62301815  0.41457284     0.15100
C313        C  0.39109096  0.77485051  0.38583406     0.86900
C314        C  0.39666528  0.76368442  0.38153452    -0.53400
C315        C  0.38964039  0.75124167  0.39621222     0.09800
C316        C  0.37767466  0.75097621  0.41385839     0.20800
C317        C  0.37435847  0.76558359  0.38100815    -0.54100
C318        C  0.36739240  0.75318882  0.39568809     0.09900
C319        C  0.39259085  0.77764444  0.41500957    -0.53600
C320        C  0.38558662  0.76521588  0.42972026     0.10500
H321        H  0.40473343  0.76472687  0.36753733     0.15000
H322        H  0.37181375  0.74083051  0.42564644     0.00700
H323        H  0.36862022  0.76834405  0.36662598     0.15300
H324        H  0.39872921  0.78856933  0.42330984     0.15100
C325        C  0.24826988  0.63699106  0.37576657     0.86900
C326        C  0.25856780  0.65392192  0.37503897    -0.53400
C327        C  0.27130140  0.65887693  0.38868251     0.09800
C328        C  0.27226872  0.64653676  0.40298108     0.20800
C329        C  0.25819092  0.63056962  0.36774197    -0.54100
C330        C  0.27059811  0.63546362  0.38212680     0.09900
C331        C  0.24551866  0.63376574  0.40468892    -0.53600
C332        C  0.25804085  0.63880081  0.41920293     0.10500
H333        H  0.25596719  0.66162786  0.36602480     0.15000
H334        H  0.28264728  0.65065227  0.41381991     0.00700
H335        H  0.25569497  0.62295912  0.35187430     0.15300
H336        H  0.23451863  0.62822939  0.41294808     0.15100
N337        N  0.47365282  0.55800601  0.80003214    -0.26900
N338        N  0.47101800  0.55182644  0.82297193    -0.34800
C339        C  0.47648512  0.54259169  0.82403823     0.01400
C340        C  0.48309248  0.54303664  0.80078433     0.07500
C341        C  0.48110287  0.55294462  0.78593612    -0.05600
H342        H  0.47612048  0.53637033  0.84086472     0.08100
H343        H  0.48474166  0.55618394  0.76637020     0.09300
Cu344      Cu  0.46151395  0.55718752  0.85294252     0.44200
Cu345      Cu  0.46657699  0.57286627  0.78982928     0.42000
Cu346      Cu  0.45313465  0.58616661  0.84362555     0.43900
N347        N  0.45525758  0.56615823  0.88251075    -0.34300
N348        N  0.45262803  0.57720670  0.87954616    -0.28500
C349        C  0.44989232  0.58108577  0.90275329    -0.04600
C350        C  0.45067805  0.57188177  0.92110577     0.07600
C351        C  0.45422268  0.56266048  0.90748650     0.01400
H352        H  0.44760644  0.58999429  0.90605332     0.09000
H353        H  0.45651047  0.55440030  0.91523834     0.08100
N354        N  0.45238221  0.59115250  0.80515255    -0.35700
N355        N  0.45688648  0.58615104  0.78573621    -0.27900
C356        C  0.45337367  0.59030083  0.76359191    -0.03200
C357        C  0.44633190  0.59828643  0.76930582     0.05500
C358        C  0.44605168  0.59869829  0.79583221     0.03500
H359        H  0.45554715  0.58746401  0.74472513     0.08700
H360        H  0.44093911  0.60351726  0.80753356     0.07500
N361        N  0.46984699  0.55234879  0.23704922    -0.26900
N362        N  0.47523998  0.55318721  0.21368967    -0.34800
C363        C  0.48370794  0.54679916  0.21359990     0.01400
C364        C  0.48362247  0.54154280  0.23795114     0.07500
C365        C  0.47459478  0.54511596  0.25231288    -0.05600
H366        H  0.48902870  0.54549377  0.19672265     0.08100
H367        H  0.47163213  0.54256428  0.27231044     0.09300
Cu368      Cu  0.46985843  0.56150504  0.18185268     0.44200
Cu369      Cu  0.45636991  0.56131925  0.24678180     0.42000
Cu370      Cu  0.44718584  0.57775954  0.19309671     0.43900
N371        N  0.46149903  0.56856280  0.15235778    -0.34300
N372        N  0.45301887  0.57446256  0.15648903    -0.28500
C373        C  0.44897122  0.57743618  0.13377037    -0.04600
C374        C  0.45513299  0.57311535  0.11429274     0.07600
C375        C  0.46309677  0.56763929  0.12690393     0.01400
H376        H  0.44217170  0.58251903  0.13168540     0.09000
H377        H  0.46936768  0.56304751  0.11819726     0.08100
N378        N  0.44204413  0.57928068  0.23118983    -0.35700
N379        N  0.44487914  0.57299318  0.25071963    -0.27900
C380        C  0.43993566  0.57614904  0.27249219    -0.03200
C381        C  0.43395016  0.58503464  0.26638937     0.05500
C382        C  0.43543387  0.58669418  0.24001948     0.03500
H383        H  0.44100589  0.57260580  0.29146187     0.08700
H384        H  0.43192570  0.59283799  0.22805430     0.07500
N385        N  0.54943603  0.47380315  0.80009871    -0.26900
N386        N  0.54910639  0.47743559  0.82430251    -0.34800
C387        C  0.54290292  0.48599993  0.82573332     0.01400
C388        C  0.53893063  0.48785429  0.80136078     0.07500
C389        C  0.54326687  0.47995943  0.78545972    -0.05600
H390        H  0.54107628  0.49028600  0.84345414     0.08100
H391        H  0.54216301  0.47887139  0.76484405     0.09300
Cu392      Cu  0.55598400  0.47012083  0.85532420     0.44200
Cu393      Cu  0.55831429  0.46054264  0.78904151     0.42000
Cu394      Cu  0.56813614  0.44455154  0.84347450     0.43900
N395        N  0.56147398  0.46038775  0.88454626    -0.34300
N396        N  0.56604218  0.45085065  0.88016580    -0.28500
C397        C  0.56864000  0.44632422  0.90269250    -0.04600
C398        C  0.56531619  0.45320127  0.92236747     0.07600
C399        C  0.56089687  0.46212170  0.90998587     0.01400
H400        H  0.57283618  0.43875194  0.90441529     0.09000
H401        H  0.55726204  0.46917324  0.91879830     0.08100
N402        N  0.57071653  0.44092994  0.80526578    -0.35700
N403        N  0.56777321  0.44703261  0.78557161    -0.27900
C404        C  0.57219166  0.44330797  0.76385633    -0.03200
C405        C  0.57790625  0.43425713  0.77025260     0.05500
C406        C  0.57681647  0.43302897  0.79661724     0.03500
H407        H  0.57149033  0.44706878  0.74486386     0.08700
H408        H  0.58080625  0.42737165  0.80877196     0.07500
N409        N  0.54166601  0.46536829  0.23698014    -0.26900
N410        N  0.53702035  0.46462367  0.21320271    -0.34800
C411        C  0.52821892  0.47058293  0.21210569     0.01400
C412        C  0.52703934  0.47526699  0.23640130     0.07500
C413        C  0.53588288  0.47192474  0.25169918    -0.05600
H414        H  0.52350848  0.47192204  0.19456546     0.08100
H415        H  0.53803774  0.47419303  0.27195224     0.09300
Cu416      Cu  0.54332104  0.45646751  0.18246541     0.44200
Cu417      Cu  0.55589132  0.45749854  0.24713759     0.42000
Cu418      Cu  0.56743527  0.44229754  0.19283372     0.43900
N419        N  0.55148582  0.44934674  0.15291746    -0.34300
N420        N  0.56054848  0.44410672  0.15645236    -0.28500
C421        C  0.56446513  0.44121223  0.13342524    -0.04600
C422        C  0.55738461  0.44471571  0.11448992     0.07600
C423        C  0.54937577  0.44997106  0.12769688     0.01400
H424        H  0.57207804  0.43710692  0.13067110     0.09000
H425        H  0.54300408  0.45458150  0.11964305     0.08100
N426        N  0.57289561  0.44208186  0.23098195    -0.35700
N427        N  0.56911734  0.44770944  0.25046125    -0.27900
C428        C  0.57449484  0.44528042  0.27225982    -0.03200
C429        C  0.58191981  0.43772914  0.26616066     0.05500
C430        C  0.58060327  0.43586740  0.23988315     0.03500
H431        H  0.57263436  0.44828112  0.29121917     0.08700
H432        H  0.58482096  0.43023997  0.22805440     0.07500
C433        C  0.57545100  0.44912354  0.04932695    -0.01600
C434        C  0.56398493  0.44700965  0.03266853     0.07000
C435        C  0.55007911  0.44308164  0.04275473    -0.07600
C436        C  0.54753229  0.44170570  0.06920537     0.04400
C437        C  0.55916668  0.44449735  0.08621752    -0.14800
C438        C  0.57297596  0.44784188  0.07591910    -0.08100
C439        C  0.56613761  0.44918055  0.00461572     0.05400
C440        C  0.56362172  0.43722933  0.98908406    -0.09300
C441        C  0.56347819  0.43824691  0.96228859     0.00300
C442        C  0.56614419  0.45159242  0.95059601     0.00200
C443        C  0.56904328  0.46365369  0.96640678    -0.12800
C444        C  0.56895130  0.46250849  0.99315102     0.00700
C445        C  0.55944676  0.42506028  0.94767817     0.40000
C446        C  0.57130735  0.47499239  0.00853647     0.36600
C447        C  0.58986982  0.45292544  0.03956425     0.36300
C448        C  0.53274668  0.43702031  0.07811735     0.37100
N449        N  0.55613601  0.41439075  0.93619113    -0.43700
N450        N  0.57313445  0.48495604  0.02092025    -0.44100
N451        N  0.52085690  0.43325005  0.08507451    -0.41500
N452        N  0.60142679  0.45595351  0.03174357    -0.42900
H453        H  0.58199341  0.44993499  0.08864263     0.13200
H454        H  0.54118844  0.44118899  0.02982732     0.09700
H455        H  0.56113839  0.42687420  0.99799283     0.10800
H456        H  0.57119991  0.47399437  0.95790471     0.16600
C457        C  0.48681889  0.50862998  0.25943934    -0.01600
C458        C  0.50145662  0.51283810  0.25228587     0.07000
C459        C  0.51063111  0.52718431  0.24314977    -0.07600
C460        C  0.50523392  0.53697921  0.23976205     0.04400
C461        C  0.49035434  0.53247208  0.24545190    -0.14800
C462        C  0.48142202  0.51846428  0.25612554    -0.08100
C463        C  0.50701172  0.50212617  0.25158605     0.05400
C464        C  0.50001264  0.48984164  0.23540823    -0.09300
C465        C  0.50585711  0.48046421  0.23145400     0.00300
C466        C  0.51924002  0.48349756  0.24332643     0.00200
C467        C  0.52575979  0.49527168  0.26075195    -0.12800
C468        C  0.51975435  0.50454085  0.26496736     0.00700
C469        C  0.49769205  0.46765097  0.21550220     0.40000
C470        C  0.52682770  0.51645267  0.28310061     0.36600
C471        C  0.47709150  0.49419764  0.26981564     0.36300
C472        C  0.51521613  0.55164983  0.23059692     0.37100
N473        N  0.49110059  0.45735195  0.20280977    -0.43700
N474        N  0.53244429  0.52596254  0.29773416    -0.44100
N475        N  0.52326575  0.56344054  0.22344691    -0.41500
N476        N  0.46932131  0.48261227  0.27810735    -0.42900
H477        H  0.47000976  0.51494126  0.26075405     0.13200
H478        H  0.52191453  0.53057031  0.23775068     0.09700
H479        H  0.49010908  0.48777020  0.22528202     0.10800
H480        H  0.53586804  0.49759131  0.27038856     0.16600
C481        C  0.49205136  0.51212990  0.79871540    -0.01600
C482        C  0.50657394  0.51924063  0.78893906     0.07000
C483        C  0.51292578  0.53397577  0.78099343    -0.07600
C484        C  0.50529742  0.54183120  0.78372207     0.04400
C485        C  0.49096047  0.53486015  0.79438957    -0.14800
C486        C  0.48442375  0.51996060  0.80140615    -0.08100
C487        C  0.51583427  0.51204070  0.78978207     0.05400
C488        C  0.51207065  0.49944918  0.77490374    -0.09300
C489        C  0.51976543  0.49162838  0.77743306     0.00300
C490        C  0.53154250  0.49650456  0.79502492     0.00200
C491        C  0.53557182  0.50940686  0.80912438    -0.12800
C492        C  0.52782651  0.51708872  0.80680124     0.00700
C493        C  0.51462851  0.47812307  0.76319006     0.40000
C494        C  0.53182595  0.52960271  0.82333177     0.36600
C495        C  0.48506736  0.49707002  0.80753604     0.36300
C496        C  0.51292950  0.55731455  0.77753589     0.37100
N497        N  0.51041623  0.46726793  0.75180066    -0.43700
N498        N  0.53498715  0.53958598  0.83665971    -0.44100
N499        N  0.51913194  0.56975116  0.77273392    -0.41500
N500        N  0.47947538  0.48500014  0.81459443    -0.42900
H501        H  0.47343481  0.51451672  0.80967818     0.13200
H502        H  0.52414270  0.53953697  0.77371740     0.09700
H503        H  0.50278582  0.49545767  0.76192856     0.10800
H504        H  0.54459157  0.51330512  0.82266496     0.16600
C505        C  0.46535497  0.57824428  0.04369611    -0.01600
C506        C  0.45200750  0.57519884  0.03193658     0.07000
C507        C  0.43967685  0.57178993  0.04731619    -0.07600
C508        C  0.44045923  0.57134028  0.07414548     0.04400
C509        C  0.45378034  0.57412806  0.08602888    -0.14800
C510        C  0.46611309  0.57758519  0.07045539    -0.08100
C511        C  0.45052817  0.57464373  0.00356958     0.05400
C512        C  0.44328919  0.56087172  0.99152909    -0.09300
C513        C  0.44276600  0.55973366  0.96473237     0.00300
C514        C  0.44956654  0.57259599  0.94943990     0.00200
C515        C  0.45615890  0.58640443  0.96158407    -0.12800
C516        C  0.45675421  0.58750508  0.98843234     0.00700
C517        C  0.43494777  0.54523021  0.95349804     0.40000
C518        C  0.46398358  0.60190806  0.00009182     0.36600
C519        C  0.47833067  0.58179730  0.02859453     0.36300
C520        C  0.42721572  0.56730815  0.08874344     0.37100
N521        N  0.42866706  0.53359545  0.94453703    -0.43700
N522        N  0.46978368  0.61344096  0.00949693    -0.44100
N523        N  0.41655303  0.56410109  0.10030387    -0.41500
N524        N  0.48871523  0.58470102  0.01640940    -0.42900
H525        H  0.47642694  0.57983758  0.07921835     0.13200
H526        H  0.42936049  0.56931183  0.03827713     0.09700
H527        H  0.43830590  0.55096185  0.00314542     0.10800
H528        H  0.46133776  0.59635796  0.95011094     0.16600
C529        C  0.32665949  0.72871736  0.40900199    -0.01600
C530        C  0.32296372  0.71723634  0.39110149     0.07000
C531        C  0.33344509  0.71888731  0.37244727    -0.07600
C532        C  0.34763026  0.73115853  0.37249823     0.04400
C533        C  0.35177155  0.74174401  0.39214784    -0.14800
C534        C  0.34112757  0.74061537  0.40991103    -0.08100
C535        C  0.30860018  0.70314791  0.39182952     0.05400
C536        C  0.30023927  0.69810976  0.36930527    -0.09300
C537        C  0.28786538  0.68399496  0.36787870     0.00300
C538        C  0.28332231  0.67463412  0.38965943     0.00200
C539        C  0.29131306  0.68000630  0.41254042    -0.12800
C540        C  0.30398592  0.69389962  0.41364450     0.00700
C541        C  0.28080016  0.67919584  0.34325391     0.40000
C542        C  0.31262105  0.69787587  0.43684379     0.36600
C543        C  0.31573412  0.72868396  0.42614039     0.36300
C544        C  0.35788124  0.73242637  0.35262213     0.37100
N545        N  0.27512600  0.67540315  0.32350880    -0.43700
N546        N  0.31953233  0.70103064  0.45544173    -0.44100
N547        N  0.36609806  0.73342432  0.33671152    -0.41500
N548        N  0.30693080  0.72869072  0.43972238    -0.42900
H549        H  0.34415283  0.74899375  0.42456451     0.13200
H550        H  0.33066193  0.71036498  0.35815752     0.09700
H551        H  0.30378009  0.70504228  0.35235816     0.10800
H552        H  0.28795094  0.67314797  0.42955687     0.16600
C553        C  0.39149014  0.60536499  0.33098828    -0.01600
C554        C  0.40665573  0.60997032  0.33240786     0.07000
C555        C  0.41552879  0.62174056  0.34860755    -0.07600
C556        C  0.40961303  0.62886775  0.36331600     0.04400
C557        C  0.39434797  0.62444944  0.36191930    -0.14800
C558        C  0.38549006  0.61246769  0.34566547    -0.08100
C559        C  0.41372274  0.60330006  0.31620126     0.05400
C560        C  0.42451240  0.61226680  0.29827383    -0.09300
C561        C  0.43141542  0.60661190  0.28236834     0.00300
C562        C  0.42752438  0.59161994  0.28406155     0.00200
C563        C  0.41712544  0.58274816  0.30263481    -0.12800
C564        C  0.41024750  0.58844367  0.31865571     0.00700
C565        C  0.44297074  0.61661939  0.26533607     0.40000
C566        C  0.39991991  0.57892390  0.33780896     0.36600
C567        C  0.38187165  0.59357444  0.31407942     0.36300
C568        C  0.41962791  0.64075297  0.37971770     0.37100
N569        N  0.45231589  0.62467316  0.25184650    -0.43700
N570        N  0.39162849  0.57126543  0.35312964    -0.44100
N571        N  0.42768266  0.65030937  0.39275548    -0.41500
N572        N  0.37415281  0.58409000  0.30059899    -0.42900
H573        H  0.37379715  0.60830118  0.34426028     0.13200
H574        H  0.42721228  0.62538967  0.34978969     0.09700
H575        H  0.42754742  0.62377548  0.29667565     0.10800
H576        H  0.41420935  0.57128311  0.30438647     0.16600
C577        C  0.40075528  0.69476979  0.40983241    -0.01600
C578        C  0.39694846  0.69975219  0.38749288     0.07000
C579        C  0.39326894  0.69112668  0.36520171    -0.07600
C580        C  0.39234971  0.67727197  0.36539422     0.04400
C581        C  0.39519835  0.67185330  0.38824374    -0.14800
C582        C  0.39981965  0.68089461  0.41005893    -0.08100
C583        C  0.39524363  0.71309647  0.38794773     0.05400
C584        C  0.40768327  0.72707603  0.39102615    -0.09300
C585        C  0.40623417  0.73971846  0.39321562     0.00300
C586        C  0.39206728  0.73839078  0.39326502     0.00200
C587        C  0.37970546  0.72438626  0.39041652    -0.12800
C588        C  0.38117649  0.71191088  0.38684261     0.00700
C589        C  0.41937021  0.75377590  0.39668353     0.40000
C590        C  0.36800960  0.69810010  0.38177028     0.36600
C591        C  0.40446490  0.70316974  0.43331993     0.36300
C592        C  0.38721752  0.66833293  0.34255659     0.37100
N593        N  0.42989719  0.76506546  0.39937531    -0.43700
N594        N  0.35733166  0.68724351  0.37716796    -0.44100
N595        N  0.38310623  0.66112846  0.32429585    -0.41500
N596        N  0.40741054  0.70993074  0.45211304    -0.42900
H597        H  0.40189172  0.67675371  0.42771588     0.13200
H598        H  0.39038151  0.69491957  0.34797159     0.09700
H599        H  0.41852842  0.72808292  0.39187017     0.10800
H600        H  0.36878766  0.72315184  0.39062103     0.16600
C601        C  0.32512953  0.61804828  0.37582010    -0.01600
C602        C  0.32250148  0.62985372  0.38042474     0.07000
C603        C  0.33398444  0.64300776  0.39001828    -0.07600
C604        C  0.34806837  0.64493554  0.39398139     0.04400
C605        C  0.35111966  0.63332817  0.38855225    -0.14800
C606        C  0.33926696  0.61984382  0.37988418    -0.08100
C607        C  0.30797685  0.62906294  0.37604631     0.05400
C608        C  0.29545889  0.61886048  0.38983360    -0.09300
C609        C  0.28253322  0.61990672  0.39007579     0.00300
C610        C  0.28224228  0.63159297  0.37714044     0.00200
C611        C  0.29428924  0.64111260  0.36194321    -0.12800
C612        C  0.30698718  0.63977309  0.36090784     0.00700
C613        C  0.27000506  0.60943261  0.40489984     0.40000
C614        C  0.31903291  0.64977139  0.34465923     0.36600
C615        C  0.31360127  0.60411999  0.36638843     0.36300
C616        C  0.35871515  0.65914789  0.40365273     0.37100
N617        N  0.25997427  0.60109433  0.41686475    -0.43700
N618        N  0.32867177  0.65774536  0.33157964    -0.44100
N619        N  0.36661196  0.67057907  0.41227270    -0.41500
N620        N  0.30431131  0.59294614  0.35891092    -0.42900
H621        H  0.34095660  0.61056491  0.37629557     0.13200
H622        H  0.33189902  0.65198933  0.39438630     0.09700
H623        H  0.29602067  0.61056478  0.40147326     0.10800
H624        H  0.29398205  0.64997315  0.35163994     0.16600
C625        C  0.26518364  0.65126549  0.54459843    -0.01600
C626        C  0.25584621  0.63853683  0.53052915     0.07000
C627        C  0.24684977  0.62534229  0.54348126    -0.07600
C628        C  0.24698379  0.62469084  0.57028320     0.04400
C629        C  0.25589425  0.63761374  0.58461722    -0.14800
C630        C  0.26508522  0.65073741  0.57141231    -0.08100
C631        C  0.25616207  0.63849709  0.50219558     0.05400
C632        C  0.26695356  0.63649506  0.48986331    -0.09300
C633        C  0.26788346  0.63649862  0.46307971     0.00300
C634        C  0.25766873  0.63842387  0.44795437     0.00200
C635        C  0.24687019  0.64050518  0.46071329    -0.12800
C636        C  0.24605254  0.64053727  0.48752567     0.00700
C637        C  0.27950668  0.63445531  0.45240087     0.40000
C638        C  0.23493277  0.64293352  0.49961690     0.36600
C639        C  0.27519936  0.66486494  0.53183876     0.36300
C640        C  0.23885430  0.61040842  0.58228283     0.37100
N641        N  0.28924014  0.63309853  0.44498713    -0.43700
N642        N  0.22603965  0.64487923  0.50932204    -0.44100
N643        N  0.23244602  0.59895718  0.59190753    -0.41500
N644        N  0.28328960  0.67571314  0.52153833    -0.42900
H645        H  0.27235107  0.66059183  0.58197656     0.13200
H646        H  0.24008512  0.61542300  0.53254175     0.09700
H647        H  0.27475790  0.63497675  0.50133945     0.10800
H648        H  0.23919349  0.64246253  0.44978068     0.16600
C649        C  0.38117581  0.77583256  0.49762952    -0.01600
C650        C  0.38404286  0.76630953  0.51258142     0.07000
C651        C  0.38785947  0.75670501  0.50033236    -0.07600
C652        C  0.38870817  0.75635591  0.47349582     0.04400
C653        C  0.38540856  0.76557649  0.45834776    -0.14800
C654        C  0.38180906  0.77536466  0.47076429    -0.08100
C655        C  0.38308253  0.76615204  0.54104408     0.05400
C656        C  0.36998457  0.75579764  0.55305454    -0.09300
C657        C  0.36870985  0.75507403  0.57988582     0.00300
C658        C  0.38072066  0.76491511  0.59520296     0.00200
C659        C  0.39375598  0.77542855  0.58305366    -0.12800
C660        C  0.39505570  0.77601296  0.55623832     0.00700
C661        C  0.35479919  0.74442226  0.59103343     0.40000
C662        C  0.40889868  0.78652917  0.54471012     0.36600
C663        C  0.37757191  0.78615376  0.50951741     0.36300
C664        C  0.39378771  0.74701127  0.46227918     0.37100
N665        N  0.34355953  0.73582696  0.59961925    -0.43700
N666        N  0.42002405  0.79490883  0.53547255    -0.44100
N667        N  0.39801262  0.73952172  0.45380585    -0.41500
N668        N  0.37475649  0.79446402  0.51912230    -0.42900
H669        H  0.37932589  0.78256040  0.45943278     0.13200
H670        H  0.39035259  0.74957308  0.51183834     0.09700
H671        H  0.36073026  0.74824478  0.54138422     0.10800
H672        H  0.40312625  0.78289888  0.59457337     0.16600
C673        C  0.32245864  0.72469468  0.66517539    -0.01600
C674        C  0.32028686  0.71031920  0.66280685     0.07000
C675        C  0.33252580  0.70840115  0.65924810    -0.07600
C676        C  0.34679766  0.72039606  0.65820021     0.04400
C677        C  0.34915178  0.73493344  0.66025963    -0.14800
C678        C  0.33678747  0.73682877  0.66392909    -0.08100
C679        C  0.30546009  0.69695592  0.66284436     0.05400
C680        C  0.29549344  0.69506353  0.64321292    -0.09300
C681        C  0.28271912  0.68145328  0.63961111     0.00300
C682        C  0.27998904  0.66947896  0.65546665     0.00200
C683        C  0.28931387  0.67163155  0.67622505    -0.12800
C684        C  0.30194934  0.68525890  0.68011617     0.00700
C685        C  0.27250847  0.68002158  0.61975556     0.40000
C686        C  0.31137255  0.68686668  0.70151641     0.36600
C687        C  0.31019095  0.72722121  0.66920708     0.36300
C688        C  0.35852635  0.71697869  0.65572495     0.37100
N689        N  0.26420387  0.67895420  0.60410928    -0.43700
N690        N  0.31891691  0.68815497  0.71867392    -0.44100
N691        N  0.36727438  0.71331449  0.65354272    -0.41500
N692        N  0.30032000  0.72919727  0.67243015    -0.42900
H693        H  0.33827353  0.74783531  0.66537192     0.13200
H694        H  0.33088337  0.69734688  0.65717381     0.09700
H695        H  0.29800551  0.70402391  0.63002711     0.10800
H696        H  0.28708153  0.66244772  0.68868509     0.16600
C697        C  0.43408145  0.62389800  0.74092368    -0.01600
C698        C  0.42493615  0.61546230  0.72051036     0.07000
C699        C  0.42345055  0.60158923  0.71541304    -0.07600
C700        C  0.43052602  0.59589602  0.73064915     0.04400
C701        C  0.43942522  0.60419805  0.75144054    -0.14800
C702        C  0.44112254  0.61819489  0.75622442    -0.08100
C703        C  0.41650554  0.62072173  0.70478444     0.05400
C704        C  0.42415888  0.63352910  0.69007690    -0.09300
C705        C  0.41664592  0.63897279  0.67544226     0.00300
C706        C  0.40094322  0.63163827  0.67531685     0.00200
C707        C  0.39336446  0.61861054  0.68994429    -0.12800
C708        C  0.40096508  0.61316295  0.70440849     0.00700
C709        C  0.42547891  0.65227972  0.66089307     0.40000
C710        C  0.39252008  0.59989268  0.71921321     0.36600
C711        C  0.43603361  0.63823401  0.74708490     0.36300
C712        C  0.42764056  0.58112886  0.72550964     0.37100
N713        N  0.43253779  0.66297014  0.64932993    -0.43700
N714        N  0.38578846  0.58922817  0.73101170    -0.44100
N715        N  0.42523903  0.56925562  0.72142011    -0.41500
N716        N  0.43763948  0.64974524  0.75197368    -0.42900
H717        H  0.44790981  0.62467226  0.77211766     0.13200
H718        H  0.41647846  0.59505125  0.69973770     0.09700
H719        H  0.43610643  0.63931458  0.69002445     0.10800
H720        H  0.38153067  0.61247001  0.69047022     0.16600
C721        C  0.38384246  0.62816638  0.54980923    -0.01600
C722        C  0.38805059  0.64046655  0.53377538     0.07000
C723        C  0.39294924  0.65435912  0.54494927    -0.07600
C724        C  0.39368260  0.65610555  0.57170928     0.04400
C725        C  0.38959912  0.64380736  0.58773984    -0.14800
C726        C  0.38470507  0.62992838  0.57648277    -0.08100
C727        C  0.38728899  0.63902309  0.50534419     0.05400
C728        C  0.37346272  0.63111668  0.49353266    -0.09300
C729        C  0.37228774  0.62984746  0.46676505     0.00300
C730        C  0.38509919  0.63656745  0.45140243     0.00200
C731        C  0.39893653  0.64416233  0.46316400    -0.12800
C732        C  0.40012123  0.64543994  0.48993630     0.00700
C733        C  0.35786872  0.62136654  0.45547960     0.40000
C734        C  0.41460326  0.65321865  0.50120941     0.36600
C735        C  0.37881570  0.61366511  0.53931558     0.36300
C736        C  0.39907325  0.67067359  0.58210819     0.37100
N737        N  0.34631717  0.61446977  0.44646394    -0.43700
N738        N  0.42621177  0.65942419  0.51026500    -0.44100
N739        N  0.40341877  0.68242445  0.59015095    -0.41500
N740        N  0.37476439  0.60203825  0.53090480    -0.42900
H741        H  0.38137810  0.62036831  0.58862388     0.13200
H742        H  0.39616971  0.66385215  0.53269165     0.09700
H743        H  0.36356934  0.62603279  0.50527361     0.10800
H744        H  0.40880660  0.64934818  0.45136523     0.16600
C745        C  0.41107872  0.70195420  0.65275297    -0.01600
C746        C  0.39987515  0.70469657  0.66163548     0.07000
C747        C  0.38631690  0.69284549  0.66932777    -0.07600
C748        C  0.38357642  0.67838478  0.66743772     0.04400
C749        C  0.39448605  0.67553891  0.65738759    -0.14800
C750        C  0.40833860  0.68740940  0.65081851    -0.08100
C751        C  0.40125477  0.71952011  0.66092996     0.05400
C752        C  0.40190903  0.72587776  0.63694099    -0.09300
C753        C  0.39922322  0.73770407  0.63466693     0.00300
C754        C  0.39585113  0.74334872  0.65672882     0.00200
C755        C  0.39667036  0.73792453  0.68096202    -0.12800
C756        C  0.39925222  0.72603537  0.68319377     0.00700
C757        C  0.39954877  0.74348019  0.60941344     0.40000
C758        C  0.39896064  0.72015373  0.70836726     0.36600
C759        C  0.42539538  0.71388220  0.64563784     0.36300
C760        C  0.36961150  0.66684774  0.67676258     0.37100
N761        N  0.39990282  0.74797078  0.58900003    -0.43700
N762        N  0.39870007  0.71541183  0.72852710    -0.44100
N763        N  0.35835169  0.65808524  0.68496665    -0.41500
N764        N  0.43688076  0.72349208  0.64005299    -0.42900
H765        H  0.41686320  0.68528187  0.64351679     0.13200
H766        H  0.37768780  0.69489543  0.67635338     0.09700
H767        H  0.40351657  0.72094746  0.61977116     0.10800
H768        H  0.39419282  0.74223268  0.69806771     0.16600
C769        C  0.33401036  0.63262452  0.61940644    -0.01600
C770        C  0.32483609  0.62859366  0.64122134     0.07000
C771        C  0.32953199  0.62507859  0.66394111    -0.07600
C772        C  0.34364103  0.62658108  0.66579014     0.04400
C773        C  0.35335824  0.63166733  0.64438563    -0.14800
C774        C  0.34800727  0.63392239  0.62103648    -0.08100
C775        C  0.31107672  0.62953885  0.64153709     0.05400
C776        C  0.29731335  0.61668592  0.63981021    -0.09300
C777        C  0.28418818  0.61738367  0.64017977     0.00300
C778        C  0.28476308  0.63113481  0.64284241     0.00200
C779        C  0.29859550  0.64393231  0.64456316    -0.12800
C780        C  0.31164718  0.64325957  0.64380500     0.00700
C781        C  0.27039308  0.60397415  0.63646895     0.40000
C782        C  0.32551975  0.65683243  0.64545876     0.36600
C783        C  0.32950160  0.63606177  0.59543647     0.36300
C784        C  0.34819960  0.62428618  0.69064614     0.37100
N785        N  0.25933353  0.59323495  0.63337407    -0.43700
N786        N  0.33659846  0.66774545  0.64666870    -0.44100
N787        N  0.35177960  0.62248591  0.71067990    -0.41500
N788        N  0.32588812  0.63885489  0.57626568    -0.42900
H789        H  0.35497970  0.63725442  0.60410627     0.13200
H790        H  0.32246605  0.62198755  0.68076330     0.09700
H791        H  0.29685049  0.60613310  0.63776375     0.10800
H792        H  0.29926370  0.65456780  0.64663598     0.16600
C793        C  0.60773527  0.41211063  0.35775272    -0.01600
C794        C  0.60955518  0.41325869  0.33094878     0.07000
C795        C  0.61853008  0.40841206  0.31927762    -0.07600
C796        C  0.62547409  0.40229457  0.33374839     0.04400
C797        C  0.62371751  0.40102565  0.36085174    -0.14800
C798        C  0.61463788  0.40600765  0.37231177    -0.08100
C799        C  0.60208178  0.41932794  0.31471861     0.05400
C800        C  0.60477475  0.43372447  0.31911290    -0.09300
C801        C  0.59805552  0.43984694  0.30404208     0.00300
C802        C  0.58870798  0.43162296  0.28369057     0.00200
C803        C  0.58601353  0.41723348  0.27934759    -0.12800
C804        C  0.59242233  0.41099104  0.29479714     0.00700
C805        C  0.60143252  0.45476266  0.30924954     0.40000
C806        C  0.58855965  0.39586343  0.29028074     0.36600
C807        C  0.59840472  0.41666821  0.37083011     0.36300
C808        C  0.63432713  0.39741811  0.31997986     0.37100
N809        N  0.60416049  0.46671605  0.31355609    -0.43700
N810        N  0.58542044  0.38372859  0.28667959    -0.44100
N811        N  0.64151558  0.39370449  0.30873206    -0.41500
N812        N  0.59099968  0.42037753  0.38136805    -0.42900
H813        H  0.61230818  0.40491424  0.39246276     0.13200
H814        H  0.62008571  0.40937867  0.29865394     0.09700
H815        H  0.61227178  0.44025268  0.33424062     0.10800
H816        H  0.57867365  0.41073770  0.26401646     0.16600
C817        C  0.63748403  0.31297556  0.36735582    -0.01600
C818        C  0.62464278  0.31264874  0.37700330     0.07000
C819        C  0.61359667  0.29964695  0.38838127    -0.07600
C820        C  0.61555594  0.28739491  0.39149089     0.04400
C821        C  0.62862060  0.28798927  0.38273873    -0.14800
C822        C  0.63937244  0.30070166  0.37038259    -0.08100
C823        C  0.62350743  0.32629155  0.37825924     0.05400
C824        C  0.62393690  0.33374112  0.35559597    -0.09300
C825        C  0.62533291  0.34780840  0.35643384     0.00300
C826        C  0.62633016  0.35462322  0.38038514     0.00200
C827        C  0.62483900  0.34667933  0.40293232    -0.12800
C828        C  0.62345283  0.33268327  0.40209238     0.00700
C829        C  0.62655259  0.35518304  0.33244453     0.40000
C830        C  0.62288705  0.32549905  0.42604934     0.36600
C831        C  0.64922891  0.32602343  0.35553102     0.36300
C832        C  0.60453035  0.27474463  0.40527037     0.37100
N833        N  0.62736633  0.36081173  0.31294765    -0.43700
N834        N  0.62236499  0.31967693  0.44520242    -0.44100
N835        N  0.59576061  0.26465787  0.41654256    -0.41500
N836        N  0.65860230  0.33646456  0.34596769    -0.42900
H837        H  0.64944013  0.30116613  0.36365138     0.13200
H838        H  0.60372947  0.29932647  0.39589256     0.09700
H839        H  0.62379401  0.32879416  0.33721531     0.10800
H840        H  0.62527981  0.35165859  0.42142950     0.16600
C841        C  0.70916453  0.34123179  0.38605026    -0.01600
C842        C  0.71090422  0.32876848  0.38318489     0.07000
C843        C  0.72508941  0.33056225  0.38118802    -0.07600
C844        C  0.73756970  0.34461060  0.38248522     0.04400
C845        C  0.73586834  0.35718412  0.38545313    -0.14800
C846        C  0.72156062  0.35526432  0.38677816    -0.08100
C847        C  0.69791909  0.31380248  0.38350354     0.05400
C848        C  0.68955202  0.30830177  0.36113333    -0.09300
C849        C  0.67593049  0.29528982  0.36176313     0.00300
C850        C  0.67038123  0.28786124  0.38528530     0.00200
C851        C  0.67909689  0.29300956  0.40736840    -0.12800
C852        C  0.69292182  0.30575453  0.40652338     0.00700
C853        C  0.66747890  0.29030960  0.33841284     0.40000
C854        C  0.70162296  0.31065434  0.42960844     0.36600
C855        C  0.69475969  0.33981124  0.38937907     0.36300
C856        C  0.75187840  0.34562686  0.38216624     0.37100
N857        N  0.66070234  0.28624783  0.31971133    -0.43700
N858        N  0.70869813  0.31453159  0.44800753    -0.44100
N859        N  0.76333533  0.34640325  0.38182239    -0.41500
N860        N  0.68322208  0.33863353  0.39230710    -0.42900
H861        H  0.72000355  0.36474289  0.38874684     0.13200
H862        H  0.72639804  0.32092713  0.37929850     0.09700
H863        H  0.69343514  0.31447656  0.34339252     0.10800
H864        H  0.67492788  0.28724265  0.42541828     0.16600
C865        C  0.71911624  0.40281108  0.40918844    -0.01600
C866        C  0.71312027  0.40323163  0.38519513     0.07000
C867        C  0.72063967  0.40332254  0.36271883    -0.07600
C868        C  0.73323021  0.40177310  0.36377331     0.04400
C869        C  0.73890081  0.40076451  0.38781776    -0.14800
C870        C  0.73199133  0.40179549  0.41027782    -0.08100
C871        C  0.69813557  0.40159300  0.38316711     0.05400
C872        C  0.69510845  0.41198776  0.39477031    -0.09300
C873        C  0.68070575  0.40980104  0.39536994     0.00300
C874        C  0.66918521  0.39724700  0.38366851     0.00200
C875        C  0.67222807  0.38703138  0.37167073    -0.12800
C876        C  0.68651440  0.38904873  0.37140529     0.00700
C877        C  0.67778136  0.41994326  0.40964649     0.40000
C878        C  0.68879030  0.37762919  0.36034011     0.36600
C879        C  0.71159151  0.40209407  0.43291259     0.36300
C880        C  0.73905783  0.39966451  0.33994785     0.37100
N881        N  0.67534675  0.42794196  0.42132261    -0.43700
N882        N  0.69070267  0.36852522  0.35154165    -0.44100
N883        N  0.74362694  0.39785530  0.32083526    -0.41500
N884        N  0.70551499  0.40143703  0.45191203    -0.42900
H885        H  0.73622634  0.40099840  0.42881936     0.13200
H886        H  0.71605406  0.40358191  0.34422160     0.09700
H887        H  0.70391337  0.42154044  0.40413836     0.10800
H888        H  0.66329374  0.37719677  0.36315672     0.16600
C889        C  0.60603007  0.41184180  0.67818883    -0.01600
C890        C  0.60825326  0.41292421  0.70485010     0.07000
C891        C  0.61761167  0.40837908  0.71559995    -0.07600
C892        C  0.62497351  0.40303767  0.70013350     0.04400
C893        C  0.62304080  0.40208793  0.67303351    -0.14800
C894        C  0.61333636  0.40651535  0.66261441    -0.08100
C895        C  0.60071293  0.41859528  0.72181821     0.05400
C896        C  0.58949469  0.40879725  0.73828390    -0.09300
C897        C  0.58181701  0.41364393  0.75401994     0.00300
C898        C  0.58526670  0.42852249  0.75319134     0.00200
C899        C  0.59648699  0.43830974  0.73669469    -0.12800
C900        C  0.60435191  0.43351698  0.72134582     0.00700
C901        C  0.57013789  0.40305226  0.77021400     0.40000
C902        C  0.61644522  0.44417096  0.70593321     0.36600
C903        C  0.59600897  0.41586953  0.66639914     0.36300
C904        C  0.63457349  0.39875124  0.71278637     0.37100
N905        N  0.56076485  0.39456210  0.78317160    -0.43700
N906        N  0.62620457  0.45271081  0.69369789    -0.44100
N907        N  0.64233039  0.39541826  0.72295108    -0.41500
N908        N  0.58798145  0.41911257  0.65702614    -0.42900
H909        H  0.61107894  0.40583753  0.64245523     0.13200
H910        H  0.61925813  0.40912315  0.73618856     0.09700
H911        H  0.58664850  0.39731163  0.73863671     0.10800
H912        H  0.59940043  0.44981434  0.73636393     0.16600
C913        C  0.63433241  0.37543262  0.54608269    -0.01600
C914        C  0.63571171  0.38699200  0.53035073     0.07000
C915        C  0.63744797  0.39992157  0.54164773    -0.07600
C916        C  0.63787638  0.40151154  0.56835421     0.04400
C917        C  0.63633367  0.38986217  0.58429111    -0.14800
C918        C  0.63465293  0.37693705  0.57283028    -0.08100
C919        C  0.63548725  0.38594360  0.50200018     0.05400
C920        C  0.62224034  0.38169709  0.48910214    -0.09300
C921        C  0.62175570  0.38146566  0.46226228     0.00300
C922        C  0.63477790  0.38567970  0.44789116     0.00200
C923        C  0.64793929  0.38949090  0.46089575    -0.12800
C924        C  0.64839022  0.38972028  0.48776677     0.00700
C925        C  0.60771508  0.37660368  0.44998154     0.40000
C926        C  0.66226277  0.39425969  0.50039674     0.36600
C927        C  0.63252781  0.36194186  0.53514750     0.36300
C928        C  0.64064385  0.41547698  0.57870293     0.37100
N929        N  0.59649258  0.37275611  0.44007237    -0.43700
N930        N  0.67336915  0.39791854  0.51059394    -0.44100
N931        N  0.64285178  0.42668308  0.58691423    -0.41500
N932        N  0.63108849  0.35113084  0.52636115    -0.42900
H933        H  0.63343805  0.36792082  0.58479822     0.13200
H934        H  0.63868160  0.40888339  0.52949629     0.09700
H935        H  0.61228403  0.37867028  0.50007048     0.10800
H936        H  0.65798811  0.39275386  0.45006542     0.16600
C937        C  0.63285674  0.27361429  0.49038132    -0.01600
C938        C  0.63704414  0.26493574  0.50500913     0.07000
C939        C  0.64164750  0.25604861  0.49229878    -0.07600
C940        C  0.64183893  0.25546316  0.46541457     0.04400
C941        C  0.63726793  0.26384330  0.45068454    -0.14800
C942        C  0.63303765  0.27304346  0.46346965    -0.08100
C943        C  0.63632282  0.26464383  0.53355907     0.05400
C944        C  0.62256260  0.25665972  0.54568070    -0.09300
C945        C  0.62138419  0.25582617  0.57252239     0.00300
C946        C  0.63417451  0.26315834  0.58779181     0.00200
C947        C  0.64791425  0.27132832  0.57561225    -0.12800
C948        C  0.64909459  0.27200967  0.54875134     0.00700
C949        C  0.60686207  0.24827786  0.58391951     0.40000
C950        C  0.66347993  0.28047521  0.53716388     0.36600
C951        C  0.62851288  0.28330268  0.50261764     0.36300
C952        C  0.64729357  0.24660038  0.45346435     0.37100
N953        N  0.59522247  0.24235595  0.59307162    -0.43700
N954        N  0.67502023  0.28726039  0.52789095    -0.44100
N955        N  0.65167370  0.23951062  0.44384343    -0.41500
N956        N  0.62508559  0.29111071  0.51243219    -0.42900
H957        H  0.62966317  0.27965690  0.45240428     0.13200
H958        H  0.64505680  0.24949726  0.50347152     0.09700
H959        H  0.61267913  0.25111360  0.53406939     0.10800
H960        H  0.65779329  0.27715061  0.58714464     0.16600
C961        C  0.61355983  0.33304659  0.65254658    -0.01600
C962        C  0.62511020  0.32980371  0.65447966     0.07000
C963        C  0.63966712  0.34132976  0.65511589    -0.07600
C964        C  0.64294466  0.35599685  0.65346188     0.04400
C965        C  0.63145854  0.35942769  0.65128618    -0.14800
C966        C  0.61677892  0.34777719  0.65117061    -0.08100
C967        C  0.62261656  0.31455449  0.65376775     0.05400
C968        C  0.62220633  0.30831198  0.62983261    -0.09300
C969        C  0.62275024  0.29523047  0.62783743     0.00300
C970        C  0.62375859  0.28812616  0.65019958     0.00200
C971        C  0.62290671  0.29377912  0.67426842    -0.12800
C972        C  0.62256536  0.30702267  0.67618712     0.00700
C973        C  0.62216577  0.28945854  0.60247198     0.40000
C974        C  0.62279348  0.31303269  0.70123496     0.36600
C975        C  0.59840946  0.32141946  0.65159638     0.36300
C976        C  0.65825212  0.36708982  0.65451485     0.37100
N977        N  0.62159366  0.28523568  0.58175539    -0.43700
N978        N  0.62297419  0.31789305  0.72128169    -0.44100
N979        N  0.67071301  0.37547507  0.65528630    -0.41500
N980        N  0.58627999  0.31204431  0.65083686    -0.42900
H981        H  0.60781899  0.35016317  0.64934384     0.13200
H982        H  0.64856382  0.33880320  0.65648820     0.09700
H983        H  0.62206709  0.31402771  0.61256570     0.10800
H984        H  0.62333431  0.28829961  0.69160335     0.16600
C985        C  0.77175968  0.38949139  0.54965555    -0.01600
C986        C  0.76165522  0.39156846  0.53494414     0.07000
C987        C  0.75105963  0.39388650  0.54744454    -0.07600
C988        C  0.75033103  0.39406237  0.57432959     0.04400
C989        C  0.76010070  0.39141669  0.58927486    -0.14800
C990        C  0.77081510  0.38925248  0.57648519    -0.08100
C991        C  0.76185855  0.39115629  0.50647138     0.05400
C992        C  0.75205277  0.37810635  0.49387434    -0.09300
C993        C  0.75203523  0.37712385  0.46704179     0.00300
C994        C  0.76197551  0.38944909  0.45227891     0.00200
C995        C  0.77181127  0.40250981  0.46504749    -0.12800
C996        C  0.77179082  0.40344627  0.49188283     0.00700
C997        C  0.74208571  0.36313911  0.45544059     0.40000
C998        C  0.78189127  0.41717086  0.50408880     0.36600
C999        C  0.78317886  0.38757165  0.53757007     0.36300
C1000       C  0.73982806  0.39758530  0.58571035     0.37100
N1001       N  0.73401715  0.35184130  0.44651468    -0.43700
N1002       N  0.78995705  0.42817084  0.51392556    -0.44100
N1003       N  0.73129742  0.40045324  0.59424680    -0.41500
N1004       N  0.79239776  0.38615909  0.52784010    -0.42900
H1005       H  0.77839393  0.38715435  0.58744617     0.13200
H1006       H  0.74343269  0.39573818  0.53610013     0.09700
H1007       H  0.74449022  0.36859724  0.50511166     0.10800
H1008       H  0.77936755  0.41210873  0.45400156     0.16600
C1009       C  0.71805431  0.33315412  0.67531133    -0.01600
C1010       C  0.70922307  0.32641764  0.65350330     0.07000
C1011       C  0.71376780  0.33379392  0.62988603    -0.07600
C1012       C  0.72642904  0.34767156  0.62781748     0.04400
C1013       C  0.73458234  0.35498793  0.64996926    -0.14800
C1014       C  0.73054467  0.34725016  0.67339055    -0.08100
C1015       C  0.69480037  0.31225146  0.65498543     0.05400
C1016       C  0.68401625  0.31105765  0.67262202    -0.09300
C1017       C  0.66984154  0.29869969  0.67290031     0.00300
C1018       C  0.66602206  0.28731357  0.65487368     0.00200
C1019       C  0.67682245  0.28819389  0.63774602    -0.12800
C1020       C  0.69113332  0.30040916  0.63781293     0.00700
C1021       C  0.65934221  0.29816030  0.69157254     0.40000
C1022       C  0.70180761  0.30052876  0.61996071     0.36600
C1023       C  0.71447723  0.32591009  0.69996261     0.36300
C1024       C  0.73103898  0.35370503  0.60241013     0.37100
N1025       N  0.65117285  0.29789544  0.70692285    -0.43700
N1026       N  0.71033404  0.30062874  0.60556486    -0.44100
N1027       N  0.73455870  0.35819545  0.58179168    -0.41500
N1028       N  0.71158452  0.32011941  0.71973886    -0.42900
H1029       H  0.73670797  0.35249574  0.69061210     0.13200
H1030       H  0.70723445  0.32878727  0.61287018     0.09700
H1031       H  0.68650845  0.32006017  0.68574655     0.10800
H1032       H  0.67397998  0.27942428  0.62391869     0.16600
C1033       C  0.72730208  0.41706005  0.65097239    -0.01600
C1034       C  0.71286328  0.40675495  0.65872359     0.07000
C1035       C  0.70987866  0.39281374  0.66712839    -0.07600
C1036       C  0.72075925  0.38872974  0.66661784     0.04400
C1037       C  0.73493671  0.39862958  0.65721951    -0.14800
C1038       C  0.73825322  0.41295131  0.65035619    -0.08100
C1039       C  0.70020695  0.40939864  0.65593790     0.05400
C1040       C  0.69505869  0.40942761  0.63115224    -0.09300
C1041       C  0.68092055  0.40748293  0.62734831     0.00300
C1042       C  0.67171845  0.40553242  0.64866220     0.00200
C1043       C  0.67752304  0.40712235  0.67349897    -0.12800
C1044       C  0.69161284  0.40891367  0.67725832     0.00700
C1045       C  0.67600652  0.40707266  0.60137462     0.40000
C1046       C  0.69668486  0.40928212  0.70310878     0.36600
C1047       C  0.73108886  0.43185373  0.64383290     0.36300
C1048       C  0.71711867  0.37452110  0.67682361     0.37100
N1049       N  0.67222090  0.40677421  0.58044839    -0.43700
N1050       N  0.70078879  0.40956549  0.72379683    -0.44100
N1051       N  0.71378725  0.36316462  0.68571728    -0.41500
N1052       N  0.73415902  0.44376306  0.63835109    -0.42900
H1053       H  0.74926616  0.42075210  0.64374688     0.13200
H1054       H  0.69886680  0.38494099  0.67362494     0.09700
H1055       H  0.70168077  0.40990166  0.61469125     0.10800
H1056       H  0.67062338  0.40576603  0.69003930     0.16600
C1057       C  0.18294561  0.61576093  0.31683883    -0.01600
C1058       C  0.19426972  0.61219528  0.31356944     0.07000
C1059       C  0.19300980  0.60243611  0.29398002    -0.07600
C1060       C  0.18091762  0.59650375  0.27734894     0.04400
C1061       C  0.16962999  0.60016598  0.28037591    -0.14800
C1062       C  0.17069149  0.60962456  0.30046624    -0.08100
C1063       C  0.20774170  0.61876624  0.32981029     0.05400
C1064       C  0.21039048  0.60969026  0.34613592    -0.09300
C1065       C  0.22332605  0.61535918  0.36078386     0.00300
C1066       C  0.23397972  0.63059648  0.35974450     0.00200
C1067       C  0.23129332  0.63947997  0.34256183    -0.12800
C1068       C  0.21844265  0.63372532  0.32779597     0.00700
C1069       C  0.22551162  0.60509898  0.37612989     0.40000
C1070       C  0.21683099  0.64328179  0.30967622     0.36600
C1071       C  0.18370082  0.62571903  0.33677662     0.36300
C1072       C  0.18019023  0.58634832  0.25783128     0.37100
N1073       N  0.22726622  0.59683331  0.38828133    -0.43700
N1074       N  0.21557443  0.65092779  0.29510026    -0.44100
N1075       N  0.17962397  0.57821395  0.24218401    -0.41500
N1076       N  0.18435197  0.63377556  0.35265226    -0.42900
H1077       H  0.16209555  0.61249889  0.30300427     0.13200
H1078       H  0.20164151  0.59960356  0.29145859     0.09700
H1079       H  0.20237530  0.59805797  0.34718351     0.10800
H1080       H  0.23925458  0.65085100  0.33944175     0.16600
C1081       C  0.13665143  0.58062494  0.98337272    -0.01600
C1082       C  0.12593645  0.58058853  0.99998136     0.07000
C1083       C  0.11462854  0.58254609  0.98974570    -0.07600
C1084       C  0.11356830  0.58406915  0.96330412     0.04400
C1085       C  0.12390291  0.58343618  0.94637480    -0.14800
C1086       C  0.13556116  0.58202075  0.95681565    -0.08100
C1087       C  0.12615585  0.57847258  0.02812330     0.05400
C1088       C  0.13721986  0.58959844  0.04298254    -0.09300
C1089       C  0.13695953  0.58861293  0.06984321     0.00300
C1090       C  0.12543536  0.57619285  0.08233131     0.00200
C1091       C  0.11464649  0.56485945  0.06718978    -0.12800
C1092       C  0.11490525  0.56591474  0.04040484     0.00700
C1093       C  0.14814691  0.60096980  0.08386817     0.40000
C1094       C  0.10348029  0.55398997  0.02585947     0.36600
C1095       C  0.14854063  0.57872982  0.99309885     0.36300
C1096       C  0.10199759  0.58670752  0.95434395     0.37100
N1097       N  0.15717519  0.61095918  0.09489809    -0.43700
N1098       N  0.09434168  0.54446146  0.01414285    -0.44100
N1099       N  0.09269841  0.58881231  0.94726445    -0.41500
N1100       N  0.15807143  0.57722488  0.00095226    -0.42900
H1101       H  0.14359868  0.58153305  0.94420404     0.13200
H1102       H  0.10657273  0.58288223  0.00255978     0.09700
H1103       H  0.14581525  0.59933312  0.03356910     0.10800
H1104       H  0.10585409  0.55515101  0.07629923     0.16600
C1105       C  0.21660126  0.60113294  0.70023904    -0.01600
C1106       C  0.20671791  0.60663670  0.70143554     0.07000
C1107       C  0.20992856  0.61937004  0.68771274    -0.07600
C1108       C  0.22291755  0.62684468  0.67334239     0.04400
C1109       C  0.23326781  0.62169635  0.67260887    -0.14800
C1110       C  0.22965301  0.60856965  0.68590002    -0.08100
C1111       C  0.19350952  0.59995490  0.71834453     0.05400
C1112       C  0.19553824  0.59988496  0.74485020    -0.09300
C1113       C  0.18359467  0.59467141  0.76182821     0.00300
C1114       C  0.16922615  0.59001296  0.75240522     0.00200
C1115       C  0.16718109  0.58957466  0.72566082    -0.12800
C1116       C  0.17912888  0.59430601  0.70867145     0.00700
C1117       C  0.18650819  0.59362650  0.78854704     0.40000
C1118       C  0.17635581  0.59290655  0.68141800     0.36600
C1119       C  0.21344040  0.58771321  0.71334090     0.36300
C1120       C  0.22534179  0.63992507  0.65979125     0.37100
N1121       N  0.18900299  0.59274919  0.80987873    -0.43700
N1122       N  0.17412942  0.59163015  0.65957946    -0.44100
N1123       N  0.22731809  0.65043740  0.64905089    -0.41500
N1124       N  0.21084767  0.57696308  0.72391002    -0.42900
H1125       H  0.23673390  0.60378608  0.68515849     0.13200
H1126       H  0.20235897  0.62366854  0.68866859     0.09700
H1127       H  0.20656935  0.60395676  0.75233110     0.10800
H1128       H  0.15627280  0.58573457  0.71788503     0.16600
C1129       C  0.99213257  0.50393517  0.26154951    -0.01600
C1130       C  0.00158288  0.51751328  0.24955905     0.07000
C1131       C  0.99548643  0.52399349  0.23384076    -0.07600
C1132       C  0.98033588  0.51688746  0.22898996     0.04400
C1133       C  0.97092749  0.50293908  0.23992845    -0.14800
C1134       C  0.97691377  0.49682187  0.25682223    -0.08100
C1135       C  0.01791380  0.52441379  0.25056916     0.05400
C1136       C  0.02453170  0.51702862  0.23882859    -0.09300
C1137       C  0.03978647  0.52406673  0.23492923     0.00300
C1138       C  0.04875457  0.53875711  0.24304704     0.00200
C1139       C  0.04228422  0.54582562  0.25639332    -0.12800
C1140       C  0.02694305  0.53882113  0.25998073     0.00700
C1141       C  0.04597007  0.51604917  0.22218893     0.40000
C1142       C  0.02064179  0.54673219  0.27268542     0.36600
C1143       C  0.99784205  0.49704867  0.27850010     0.36300
C1144       C  0.97475029  0.52427022  0.21294073     0.37100
N1145       N  0.05095229  0.50964803  0.21198536    -0.43700
N1146       N  0.01555471  0.55305470  0.28282723    -0.44100
N1147       N  0.97031812  0.53024525  0.20012032    -0.41500
N1148       N  0.00241838  0.49153780  0.29211768    -0.42900
H1149       H  0.96978735  0.48619060  0.26552318     0.13200
H1150       H  0.00268200  0.53444642  0.22461070     0.09700
H1151       H  0.01767241  0.50596033  0.23155506     0.10800
H1152       H  0.04911030  0.55709220  0.26276131     0.16600
C1153       C  0.83958737  0.42243091  0.32395010    -0.01600
C1154       C  0.82695902  0.42376692  0.31973879     0.07000
C1155       C  0.82677059  0.43224399  0.29911934    -0.07600
C1156       C  0.83876586  0.43900871  0.28222917     0.04400
C1157       C  0.85130987  0.43738677  0.28598458    -0.14800
C1158       C  0.85168494  0.42933012  0.30722966    -0.08100
C1159       C  0.81354406  0.41595831  0.33590478     0.05400
C1160       C  0.81045977  0.42382780  0.35430508    -0.09300
C1161       C  0.79743027  0.41698946  0.36884984     0.00300
C1162       C  0.78695417  0.40186523  0.36499051     0.00200
C1163       C  0.79047576  0.39402430  0.34672524    -0.12800
C1164       C  0.80349142  0.40094727  0.33221334     0.00700
C1165       C  0.79512890  0.42589362  0.38754384     0.40000
C1166       C  0.80612718  0.39250209  0.31302155     0.36600
C1167       C  0.84027065  0.41388812  0.34508539     0.36300
C1168       C  0.83802959  0.44784996  0.26164678     0.37100
N1169       N  0.79331135  0.43303010  0.40254702    -0.43700
N1170       N  0.80823558  0.38577447  0.29757774    -0.44100
N1171       N  0.83739415  0.45494390  0.24520833    -0.41500
N1172       N  0.84081989  0.40702150  0.36200209    -0.42900
H1173       H  0.86125902  0.42803942  0.31032001     0.13200
H1174       H  0.81710453  0.43338168  0.29600594     0.09700
H1175       H  0.81823117  0.43541191  0.35715849     0.10800
H1176       H  0.78330830  0.38251714  0.34319554     0.16600
C1177       C  0.99510285  0.49557432  0.80331695    -0.01600
C1178       C  0.00089741  0.50817987  0.78754403     0.07000
C1179       C  0.99117964  0.51181293  0.77520460    -0.07600
C1180       C  0.97590458  0.50340600  0.77912935     0.04400
C1181       C  0.97013376  0.49094792  0.79532754    -0.14800
C1182       C  0.97986707  0.48709338  0.80698527    -0.08100
C1183       C  0.01703519  0.51850467  0.78620270     0.05400
C1184       C  0.02640445  0.51384819  0.77537335    -0.09300
C1185       C  0.04178761  0.52261910  0.77709566     0.00300
C1186       C  0.04796308  0.53623596  0.79017268     0.00200
C1187       C  0.03853501  0.54116030  0.79971886    -0.12800
C1188       C  0.02324215  0.53250732  0.79774407     0.00700
C1189       C  0.05083168  0.51694246  0.76668643     0.40000
C1190       C  0.01414553  0.53793702  0.80891865     0.36600
C1191       C  0.00459376  0.49161486  0.81719780     0.36300
C1192       C  0.96659985  0.50856709  0.76816542     0.37100
N1193       N  0.05801739  0.51234658  0.75819476    -0.43700
N1194       N  0.00684951  0.54230909  0.81775791    -0.44100
N1195       N  0.95921666  0.51284673  0.75953515    -0.41500
N1196       N  0.01218108  0.48845014  0.82838838    -0.42900
H1197       H  0.97556392  0.47758910  0.81955764     0.13200
H1198       H  0.99560663  0.52162722  0.76338472     0.09700
H1199       H  0.02166229  0.50311616  0.76633977     0.10800
H1200       H  0.04313317  0.55169190  0.80943979     0.16600
C1201       C  0.88080304  0.43860477  0.04971829    -0.01600
C1202       C  0.88721297  0.45065971  0.03271865     0.07000
C1203       C  0.89434903  0.46500202  0.04250756    -0.07600
C1204       C  0.89584554  0.46749463  0.06893012     0.04400
C1205       C  0.89019650  0.45545783  0.08604276    -0.14800
C1206       C  0.88229869  0.44107960  0.07626123    -0.08100
C1207       C  0.88748452  0.44876217  0.00464805     0.05400
C1208       C  0.87863933  0.45210143  0.98903223    -0.09300
C1209       C  0.88001597  0.45232638  0.96227205     0.00300
C1210       C  0.89041056  0.44909919  0.95078137     0.00200
C1211       C  0.89909178  0.44554762  0.96656882    -0.12800
C1212       C  0.89773308  0.44538965  0.99327977     0.00700
C1213       C  0.87143178  0.45699559  0.94736287     0.40000
C1214       C  0.90746080  0.44245246  0.00870478     0.36600
C1215       C  0.87278190  0.42368591  0.04029972     0.36300
C1216       C  0.90289208  0.48250376  0.07798481     0.37100
N1217       N  0.86456835  0.46082450  0.93555197    -0.43700
N1218       N  0.91527874  0.44015698  0.02110813    -0.44100
N1219       N  0.90845550  0.49453214  0.08523621    -0.41500
N1220       N  0.86629648  0.41173373  0.03272795    -0.42900
H1221       H  0.87773684  0.43178134  0.08930730     0.13200
H1222       H  0.89904209  0.47428097  0.02939582     0.09700
H1223       H  0.87100178  0.45503579  0.99784995     0.10800
H1224       H  0.90712731  0.44308238  0.95803030     0.16600
C1225       C  0.80183030  0.41810858  0.70628530    -0.01600
C1226       C  0.81084766  0.41167345  0.70390212     0.07000
C1227       C  0.80649580  0.39962449  0.68746499    -0.07600
C1228       C  0.79325864  0.39385040  0.67363504     0.04400
C1229       C  0.78366613  0.39980955  0.67672395    -0.14800
C1230       C  0.78850238  0.41225949  0.69285891    -0.08100
C1231       C  0.82446631  0.41697067  0.71945173     0.05400
C1232       C  0.82391641  0.40909128  0.74151669    -0.09300
C1233       C  0.83604676  0.41418989  0.75798139     0.00300
C1234       C  0.84917142  0.42748278  0.75240432     0.00200
C1235       C  0.84984743  0.43507838  0.72973420    -0.12800
C1236       C  0.83762096  0.43000308  0.71341624     0.00700
C1237       C  0.83471685  0.40531468  0.78009586     0.40000
C1238       C  0.83874461  0.43843886  0.69078888     0.36600
C1239       C  0.80600330  0.43072813  0.72265055     0.36300
C1240       C  0.78996601  0.38190505  0.65610554     0.37100
N1241       N  0.83353270  0.39813871  0.79780246    -0.43700
N1242       N  0.83967657  0.44524515  0.67268692    -0.44100
N1243       N  0.78736210  0.37236012  0.64201426    -0.41500
N1244       N  0.80937844  0.44085886  0.73571036    -0.42900
H1245       H  0.78230989  0.41790980  0.69495233     0.13200
H1246       H  0.81351603  0.39474558  0.68536175     0.09700
H1247       H  0.81384027  0.39901330  0.74611909     0.10800
H1248       H  0.85979628  0.44525994  0.72512064     0.16600
C1249       C  0.59265488  0.19746550  0.29770309    -0.01600
C1250       C  0.60118786  0.19837302  0.31919775     0.07000
C1251       C  0.60269583  0.18619360  0.32590744    -0.07600
C1252       C  0.59586168  0.17317804  0.31146199     0.04400
C1253       C  0.58718657  0.17217414  0.28997354    -0.14800
C1254       C  0.58573048  0.18444108  0.28333923    -0.08100
C1255       C  0.60921219  0.21219575  0.33416686     0.05400
C1256       C  0.60174192  0.21543326  0.35316834    -0.09300
C1257       C  0.60893689  0.22850111  0.36741080     0.00300
C1258       C  0.62415352  0.23864220  0.36320474     0.00200
C1259       C  0.63142197  0.23525605  0.34359117    -0.12800
C1260       C  0.62410090  0.22229334  0.32917171     0.00700
C1261       C  0.60024590  0.23127288  0.38591340     0.40000
C1262       C  0.63196251  0.21977440  0.30867625     0.36600
C1263       C  0.59128328  0.20994659  0.28961499     0.36300
C1264       C  0.59882844  0.16147547  0.31802055     0.37100
N1265       N  0.59322951  0.23345660  0.40067719    -0.43700
N1266       N  0.63821201  0.21779318  0.29213068    -0.44100
N1267       N  0.60130304  0.15213914  0.32315109    -0.41500
N1268       N  0.59028659  0.22000951  0.28313929    -0.42900
H1269       H  0.57925297  0.18389475  0.26673819     0.13200
H1270       H  0.60952233  0.18699796  0.34214172     0.09700
H1271       H  0.59016455  0.20775947  0.35669513     0.10800
H1272       H  0.64275249  0.24270626  0.33854213     0.16600
C1273       C  0.56041434  0.13832238  0.05885330    -0.01600
C1274       C  0.56354072  0.13009056  0.04098180     0.07000
C1275       C  0.56860527  0.12070684  0.04975276    -0.07600
C1276       C  0.57035667  0.11921983  0.07597484     0.04400
C1277       C  0.56696566  0.12724659  0.09403274    -0.14800
C1278       C  0.56217482  0.13687665  0.08512826    -0.08100
C1279       C  0.56200893  0.13124398  0.01294189     0.05400
C1280       C  0.57480134  0.13788228  0.99779024    -0.09300
C1281       C  0.57394658  0.13794002  0.97100108     0.00300
C1282       C  0.56004946  0.13108044  0.95892104     0.00200
C1283       C  0.54722989  0.12462813  0.97415062    -0.12800
C1284       C  0.54810417  0.12479110  0.00099183     0.00700
C1285       C  0.58748720  0.14422898  0.95640423     0.40000
C1286       C  0.53463576  0.11789180  0.01584768     0.36600
C1287       C  0.55555386  0.14841741  0.05066743     0.36300
C1288       C  0.57620310  0.10983147  0.08359451     0.37100
N1289       N  0.59836660  0.14924741  0.94476177    -0.43700
N1290       N  0.52385784  0.11245388  0.02779836    -0.44100
N1291       N  0.58091252  0.10230635  0.08956826    -0.41500
N1292       N  0.55164209  0.15651031  0.04416207    -0.42900
H1293       H  0.55953880  0.14310833  0.09873268     0.13200
H1294       H  0.57122459  0.11452781  0.03597854     0.09700
H1295       H  0.58550164  0.14272720  0.00695876     0.10800
H1296       H  0.53651078  0.11931158  0.96502470     0.16600
C1297       C  0.58954334  0.19919067  0.74836588    -0.01600
C1298       C  0.59850043  0.20027072  0.72709604     0.07000
C1299       C  0.60137314  0.18862791  0.72259515    -0.07600
C1300       C  0.59551618  0.17616535  0.73862961     0.04400
C1301       C  0.58675130  0.17521516  0.76009882    -0.14800
C1302       C  0.58397165  0.18689227  0.76472935    -0.08100
C1303       C  0.60524362  0.21353786  0.70976548     0.05400
C1304       C  0.61401113  0.22760617  0.72026339    -0.09300
C1305       C  0.62066401  0.24028134  0.70475609     0.00300
C1306       C  0.61928846  0.23919408  0.67757936     0.00200
C1307       C  0.61003780  0.22499247  0.66732377    -0.12800
C1308       C  0.60310470  0.21238583  0.68297341     0.00700
C1309       C  0.62872876  0.25428849  0.71758545     0.40000
C1310       C  0.59333207  0.19841440  0.67109043     0.36600
C1311       C  0.58543397  0.21029602  0.75328928     0.36300
C1312       C  0.59922575  0.16482262  0.73322538     0.37100
N1313       N  0.63514898  0.26544803  0.72810175    -0.43700
N1314       N  0.58547544  0.18722904  0.66157735    -0.44100
N1315       N  0.60220937  0.15573449  0.72888375    -0.41500
N1316       N  0.58210000  0.21917588  0.75716950    -0.42900
H1317       H  0.57713088  0.18626864  0.78093714     0.13200
H1318       H  0.60839099  0.18935434  0.70660839     0.09700
H1319       H  0.61567852  0.22872315  0.74085454     0.10800
H1320       H  0.60761915  0.22344303  0.64709388     0.16600
C1321       C  0.49327812  0.99779983  0.22971484    -0.01600
C1322       C  0.50325548  0.00347498  0.25026786     0.07000
C1323       C  0.50453978  0.99373081  0.26711255    -0.07600
C1324       C  0.49635142  0.97844463  0.26326397     0.04400
C1325       C  0.48660954  0.97270509  0.24219037    -0.14800
C1326       C  0.48504503  0.98257834  0.22591505    -0.08100
C1327       C  0.51363294  0.01951452  0.25235304     0.05400
C1328       C  0.50929426  0.02861323  0.26510636    -0.09300
C1329       C  0.51811541  0.04401553  0.26414465     0.00300
C1330       C  0.53147797  0.05045422  0.25009378     0.00200
C1331       C  0.53603577  0.04123088  0.23836911    -0.12800
C1332       C  0.52727102  0.02591752  0.23939359     0.00700
C1333       C  0.51263340  0.05288696  0.27594733     0.40000
C1334       C  0.53210377  0.01696180  0.22586266     0.36600
C1335       C  0.49182725  0.00745116  0.21159461     0.36300
C1336       C  0.49904236  0.96909810  0.28012138     0.37100
N1337       N  0.50820976  0.05999088  0.28537077    -0.43700
N1338       N  0.53590257  0.00973605  0.21499585    -0.44100
N1339       N  0.50129457  0.96167802  0.29368470    -0.41500
N1340       N  0.49073366  0.01521284  0.19705565    -0.42900
H1341       H  0.47756701  0.97842141  0.20977857     0.13200
H1342       H  0.51241239  0.99811738  0.28268080     0.09700
H1343       H  0.49872899  0.02368820  0.27489331     0.10800
H1344       H  0.54627549  0.04602835  0.22756706     0.16600
C1345       C  0.42987568  0.84125030  0.32624422    -0.01600
C1346       C  0.41627799  0.82836856  0.32201720     0.07000
C1347       C  0.40796605  0.82760030  0.30044131    -0.07600
C1348       C  0.41311168  0.83926603  0.28283732     0.04400
C1349       C  0.42686915  0.85213307  0.28673232    -0.14800
C1350       C  0.43498605  0.85302394  0.30880300    -0.08100
C1351       C  0.41072732  0.81528405  0.33916852     0.05400
C1352       C  0.39979946  0.81264383  0.35740705    -0.09300
C1353       C  0.39366013  0.79990125  0.37272194     0.00300
C1354       C  0.39834058  0.78925825  0.36992181     0.00200
C1355       C  0.40963108  0.79230370  0.35176686    -0.12800
C1356       C  0.41568698  0.80504289  0.33652568     0.00700
C1357       C  0.38245258  0.79804768  0.39108328     0.40000
C1358       C  0.42677037  0.80719193  0.31768146     0.36600
C1359       C  0.43881758  0.84254412  0.34819523     0.36300
C1360       C  0.40378260  0.83785623  0.26142746     0.37100
N1361       N  0.37351353  0.79659038  0.40585583    -0.43700
N1362       N  0.43562126  0.80890675  0.30253073    -0.44100
N1363       N  0.39624823  0.83666226  0.24430738    -0.41500
N1364       N  0.44601035  0.84358443  0.36576284    -0.42900
H1365       H  0.44553333  0.86279944  0.31212372     0.13200
H1366       H  0.39746091  0.81774507  0.29720299     0.09700
H1367       H  0.39594892  0.82050946  0.35950508     0.10800
H1368       H  0.41386246  0.78495830  0.34878418     0.16600
C1369       C  0.52151069  0.03259459  0.78226336    -0.01600
C1370       C  0.50789607  0.02295004  0.79407393     0.07000
C1371       C  0.50073716  0.02889285  0.80856352    -0.07600
C1372       C  0.50721579  0.04410868  0.81244363     0.04400
C1373       C  0.52121222  0.05378536  0.80170930    -0.14800
C1374       C  0.52799683  0.04788964  0.78596730    -0.08100
C1375       C  0.50144412  0.00663880  0.79353301     0.05400
C1376       C  0.50829385  0.00033433  0.80777098    -0.09300
C1377       C  0.50165042  0.98503148  0.81080343     0.00300
C1378       C  0.48790297  0.97564544  0.79915956     0.00200
C1379       C  0.48143486  0.98194254  0.78378576    -0.12800
C1380       C  0.48797719  0.99729950  0.78119605     0.00700
C1381       C  0.50920765  0.97928964  0.82602903     0.40000
C1382       C  0.48052703  0.00326560  0.76629001     0.36600
C1383       C  0.52905732  0.02699177  0.76652959     0.36300
C1384       C  0.49916250  0.04947878  0.82739718     0.37100
N1385       N  0.51528595  0.97474185  0.83830526    -0.43700
N1386       N  0.47454020  0.00806227  0.75439910    -0.44100
N1387       N  0.49267991  0.05375177  0.83937594    -0.41500
N1388       N  0.53506601  0.02246621  0.75387314    -0.42900
H1389       H  0.53867165  0.05516932  0.77746968     0.13200
H1390       H  0.49021522  0.02155512  0.81752535     0.09700
H1391       H  0.51863896  0.00744363  0.81732267     0.10800
H1392       H  0.47089226  0.97489976  0.77478912     0.16600
C1393       C  0.44684199  0.88192020  0.04740226    -0.01600
C1394       C  0.44353846  0.89102830  0.03215778     0.07000
C1395       C  0.44045501  0.90124972  0.04398686    -0.07600
C1396       C  0.44100586  0.90282091  0.07066556     0.04400
C1397       C  0.44469613  0.89398711  0.08609842    -0.14800
C1398       C  0.44728095  0.88337023  0.07421342    -0.08100
C1399       C  0.44370942  0.89062496  0.00375451     0.05400
C1400       C  0.43031234  0.88333841  0.99054137    -0.09300
C1401       C  0.42983628  0.88456061  0.96380980     0.00300
C1402       C  0.44300957  0.89333148  0.94990688     0.00200
C1403       C  0.45645495  0.90014787  0.96322767    -0.12800
C1404       C  0.45689375  0.89886955  0.98987563     0.00700
C1405       C  0.41559123  0.87754415  0.95160891     0.40000
C1406       C  0.47092701  0.90664834  0.00272068     0.36600
C1407       C  0.45001077  0.87120773  0.03589277     0.36300
C1408       C  0.43735108  0.91333535  0.08159350     0.37100
N1409       N  0.40411170  0.87188046  0.94201580    -0.43700
N1410       N  0.48217778  0.91290145  0.01299650    -0.44100
N1411       N  0.43440272  0.92178355  0.09019364    -0.41500
N1412       N  0.45256340  0.86262730  0.02664972    -0.42900
H1413       H  0.45010444  0.87652164  0.08581810     0.13200
H1414       H  0.43778391  0.90816978  0.03223767     0.09700
H1415       H  0.42014403  0.87712600  0.00128804     0.10800
H1416       H  0.46667388  0.90676147  0.95284857     0.16600
C1417       C  0.39510759  0.83029879  0.74410930    -0.01600
C1418       C  0.40351870  0.82806797  0.72520123     0.07000
C1419       C  0.41768893  0.83964476  0.71935958    -0.07600
C1420       C  0.42376658  0.85305859  0.73266597     0.04400
C1421       C  0.41560336  0.85509620  0.75241515    -0.14800
C1422       C  0.40121400  0.84365214  0.75760735    -0.08100
C1423       C  0.39815903  0.81356584  0.71220750     0.05400
C1424       C  0.38580088  0.80795592  0.69620628    -0.09300
C1425       C  0.38102987  0.79471589  0.68271265     0.00300
C1426       C  0.38883581  0.78677817  0.68461284     0.00200
C1427       C  0.40086700  0.79228604  0.70173058    -0.12800
C1428       C  0.40548877  0.80540630  0.71533564     0.00700
C1429       C  0.36810409  0.78963255  0.66684066     0.40000
C1430       C  0.41772737  0.81018637  0.73280614     0.36600
C1431       C  0.38040123  0.81887341  0.75065603     0.36300
C1432       C  0.43871362  0.86409451  0.72664548     0.37100
N1433       N  0.35771741  0.78552564  0.65419627    -0.43700
N1434       N  0.42751522  0.81399292  0.74681478    -0.44100
N1435       N  0.45070817  0.87287405  0.72167317    -0.41500
N1436       N  0.36858238  0.80974734  0.75581829    -0.42900
H1437       H  0.39476226  0.84506714  0.77256678     0.13200
H1438       H  0.42418628  0.83803347  0.70472504     0.09700
H1439       H  0.37995987  0.81407391  0.69396059     0.10800
H1440       H  0.40698815  0.78658995  0.70497831     0.16600
loop_ 
_geom_bond_atom_site_label_1 
_geom_bond_atom_site_label_2 
_geom_bond_distance 
_geom_bond_site_symmetry_2 
_ccdc_geom_bond_type 
N1            N2   1.323       .  A
N1            C5   1.352       .  A
N1           Cu9   2.107       .  S
N2            C3   1.342       .  A
N2           Cu8   2.067       .  S
C3            C4   1.382       .  A
C3            H6   1.082       .  S
C4            C5   1.392       .  A
C4         C1378   1.490       .  S
C5            H7   1.082       .  S
Cu8          N11   2.066       .  S
Cu9          N19   2.107       .  S
Cu10         N12   2.073       .  S
Cu10         N18   2.074       .  S
N11          N12   1.319       .  A
N11          C15   1.342       .  A
N12          C13   1.347       .  A
C13          C14   1.389       .  A
C13          H16   1.081       .  S
C14          C15   1.385       .  A
C14        C1402   1.487       .  S
C15          H17   1.082       .  S
N18          N19   1.324       .  A
N18          C22   1.343       .  A
N19          C20   1.351       .  A
C20          C21   1.392       .  A
C20          H23   1.081       .  S
C21          C22   1.382       .  A
C21        C1421   1.491       .  S
C22          H24   1.082       .  S
N25          N26   1.321       .  A
N25          C29   1.350       .  A
N25         Cu33   2.094       .  S
N26          C27   1.341       .  A
N26         Cu32   2.060       .  S
C27          C28   1.384       .  A
C27          H30   1.082       .  S
C28          C29   1.392       .  A
C28        C1325   1.491       .  S
C29          H31   1.081       .  S
Cu32         N35   2.060       .  S
Cu33         N43   2.096       .  S
Cu34         N36   2.089       .  S
Cu34         N42   2.091       .  S
N35          N36   1.321       .  A
N35          C39   1.341       .  A
N36          C37   1.349       .  A
C37          C38   1.389       .  A
C37          H40   1.082       .  S
C38          C39   1.382       .  A
C38        C1397   1.485       .  S
C39          H41   1.082       .  S
N42          N43   1.325       .  A
N42          C46   1.347       .  A
N43          C44   1.349       .  A
C44          C45   1.388       .  A
C44          H47   1.082       .  S
C45          C46   1.387       .  A
C45        C1349   1.493       .  S
C46          H48   1.082       .  S
N49          N50   1.322       .  A
N49          C53   1.354       .  A
N49         Cu57   2.109       .  S
N50          C51   1.341       .  A
N50         Cu56   2.062       .  S
C51          C52   1.381       .  A
C51          H54   1.082       .  S
C52          C53   1.393       .  A
C52        C1373   1.490       .  S
C53          H55   1.082       .  S
Cu56         N59   2.062       .  S
Cu57         N67   2.110       .  S
Cu58         N60   2.089       .  S
Cu58         N66   2.091       .  S
N59          N60   1.321       .  A
N59          C63   1.344       .  A
N60          C61   1.348       .  A
C61          C62   1.388       .  A
C61          H64   1.082       .  S
C62          C63   1.381       .  A
C62        C1282   1.481       .  S
C63          H65   1.082       .  S
N66          N67   1.326       .  A
N66          C70   1.348       .  A
N67          C68   1.351       .  A
C68          C69   1.390       .  A
C68          H71   1.082       .  S
C69          C70   1.386       .  A
C69        C1301   1.496       .  S
C70          H72   1.082       .  S
N73          N74   1.322       .  A
N73          C77   1.352       .  A
N73         Cu81   2.097       .  S
N74          C75   1.339       .  A
N74         Cu80   2.057       .  S
C75          C76   1.379       .  A
C75          H78   1.082       .  S
C76          C77   1.392       .  A
C76        C1330   1.484       .  S
C77          H79   1.082       .  S
Cu80         N83   2.057       .  S
Cu81         N91   2.098       .  S
Cu82         N84   2.071       .  S
Cu82         N90   2.072       .  S
N83          N84   1.319       .  A
N83          C87   1.342       .  A
N84          C85   1.345       .  A
C85          C86   1.388       .  A
C85          H88   1.082       .  S
C86          C87   1.384       .  A
C86        C1277   1.483       .  S
C87          H89   1.081       .  S
N90          N91   1.325       .  A
N90          C94   1.344       .  A
N91          C92   1.349       .  A
C92          C93   1.389       .  A
C92          H95   1.082       .  S
C93          C94   1.381       .  A
C93        C1253   1.487       .  S
C94          H96   1.082       .  S
N97          N98   1.323       .  A
N97         C101   1.350       .  A
N97        Cu105   2.094       .  S
N98          C99   1.341       .  A
N98        Cu104   2.062       .  S
C99         C100   1.380       .  A
C99         H102   1.082       .  S
C100        C101   1.389       .  A
C100       C1181   1.482       .  S
C101        H103   1.082       .  S
Cu104       N107   2.062       .  S
Cu105       N115   2.095       .  S
Cu106       N108   2.071       .  S
Cu106       N114   2.073       .  S
N107        N108   1.320       .  A
N107        C111   1.343       .  A
N108        C109   1.345       .  A
C109        C110   1.387       .  A
C109        H112   1.082       .  S
C110        C111   1.384       .  A
C110       C1210   1.482       .  S
C111        H113   1.082       .  S
N114        N115   1.323       .  A
N114        C118   1.343       .  A
N115        C116   1.349       .  A
C116        C117   1.390       .  A
C116        H119   1.082       .  S
C117        C118   1.385       .  A
C117       C1234   1.491       .  S
C118        H120   1.081       .  S
N121        N122   1.322       .  A
N121        C125   1.349       .  A
N121       Cu129   2.087       .  S
N122        C123   1.343       .  A
N122       Cu128   2.070       .  S
C123        C124   1.383       .  A
C123        H126   1.082       .  S
C124        C125   1.387       .  A
C124       C1133   1.484       .  S
C125        H127   1.082       .  S
Cu128       N131   2.069       .  S
Cu129       N139   2.088       .  S
Cu130       N132   2.066       .  S
Cu130       N138   2.068       .  S
N131        N132   1.321       .  A
N131        C135   1.342       .  A
N132        C133   1.346       .  A
C133        C134   1.383       .  A
C133        H136   1.082       .  S
C134        C135   1.383       .  A
C134       C1205   1.477       .  S
C135        H137   1.082       .  S
N138        N139   1.323       .  A
N138        C142   1.343       .  A
N139        C140   1.348       .  A
C140        C141   1.386       .  A
C140        H143   1.082       .  S
C141        C142   1.382       .  A
C141       C1157   1.482       .  S
C142        H144   1.082       .  S
N145        N146   1.321       .  A
N145        C149   1.350       .  A
N145       Cu153   2.083       .  S
N146        C147   1.339       .  A
N146       Cu152   2.058       .  S
C147        C148   1.381       .  A
C147        H150   1.082       .  S
C148        C149   1.390       .  A
C148       C1186   1.484       .  S
C149        H151   1.081       .  S
Cu152       N155   2.058       .  S
Cu153       N163   2.084       .  S
Cu154       N156   2.076       .  S
Cu154       N162   2.077       .  S
N155        N156   1.318       .  A
N155        C159   1.340       .  A
N156        C157   1.348       .  A
C157        C158   1.391       .  A
C157        H160   1.082       .  S
C158        C159   1.385       .  A
C158       C1085   1.489       .  S
C159        H161   1.081       .  S
N162        N163   1.323       .  A
N162        C166   1.342       .  A
N163        C164   1.346       .  A
C164        C165   1.389       .  A
C164        H167   1.082       .  S
C165        C166   1.387       .  A
C165       C1114   1.492       .  S
C166        H168   1.080       .  S
N169        N170   1.323       .  A
N169        C173   1.351       .  A
N169       Cu177   2.090       .  S
N170        C171   1.341       .  A
N170       Cu176   2.066       .  S
C171        C172   1.380       .  A
C171        H174   1.082       .  S
C172        C173   1.387       .  A
C172       C1138   1.480       .  S
C173        H175   1.082       .  S
Cu176       N179   2.066       .  S
Cu177       N187   2.092       .  S
Cu178       N180   2.082       .  S
Cu178       N186   2.083       .  S
N179        N180   1.319       .  A
N179        C183   1.343       .  A
N180        C181   1.348       .  A
C181        C182   1.391       .  A
C181        H184   1.081       .  S
C182        C183   1.386       .  A
C182       C1090   1.492       .  S
C183        H185   1.082       .  S
N186        N187   1.325       .  A
N186        C190   1.345       .  A
N187        C188   1.349       .  A
C188        C189   1.386       .  A
C188        H191   1.082       .  S
C189        C190   1.384       .  A
C189       C1061   1.486       .  S
C190        H192   1.082       .  S
C193        C194   1.548       .  S
C193        C199   1.537       .  S
C193        C197   1.550       .  S
C193       C1229   1.548       .  S
C194        H201   1.080       .  S
C194        C195   1.360       .  D
C195        C196   1.536       .  S
C195       C1037   1.481       .  S
C196        C200   1.544       .  S
C196        C198   1.543       .  S
C196        H202   1.107       .  S
C197        H203   1.085       .  S
C197        C198   1.373       .  D
C198       C1013   1.505       .  S
C199        H204   1.086       .  S
C199        C200   1.368       .  D
C200        C989   1.498       .  S
C205        C206   1.550       .  S
C205        C211   1.554       .  S
C205        C209   1.546       .  S
C205       C1306   1.556       .  S
C206        H213   1.086       .  S
C206        C207   1.367       .  D
C207        C208   1.533       .  S
C207       C1018   1.487       .  S
C208        C212   1.533       .  S
C208        C210   1.537       .  S
C208        H214   1.111       .  S
C209        H215   1.086       .  S
C209        C210   1.370       .  D
C210        C970   1.492       .  S
C211        H216   1.082       .  S
C211        C212   1.367       .  D
C212        C946   1.491       .  S
C217        C218   1.541       .  S
C217        C223   1.549       .  S
C217        C221   1.542       .  S
C217        C893   1.543       .  S
C218        H225   1.086       .  S
C218        C219   1.367       .  D
C219        C220   1.540       .  S
C219        C965   1.494       .  S
C220        C224   1.536       .  S
C220        C222   1.539       .  S
C220        H226   1.109       .  S
C221        H227   1.086       .  S
C221        C222   1.364       .  D
C222       C1042   1.488       .  S
C223        H228   1.078       .  S
C223        C224   1.366       .  D
C224        C917   1.489       .  S
C229        C230   1.552       .  S
C229        C235   1.541       .  S
C229        C233   1.542       .  S
C229       C1162   1.544       .  S
C230        H237   1.077       .  S
C230        C231   1.367       .  D
C231        C232   1.535       .  S
C231        C845   1.491       .  S
C232        C236   1.534       .  S
C232        C234   1.535       .  S
C232        H238   1.109       .  S
C233        H239   1.086       .  S
C233        C234   1.366       .  D
C234        C869   1.488       .  S
C235        H240   1.086       .  S
C235        C236   1.366       .  D
C236        C994   1.492       .  S
C241        C242   1.540       .  S
C241        C247   1.544       .  S
C241        C245   1.553       .  S
C241       C1258   1.544       .  S
C242        H249   1.086       .  S
C242        C243   1.362       .  D
C243        C244   1.532       .  S
C243        C821   1.477       .  S
C244        C248   1.536       .  S
C244        C246   1.530       .  S
C244        H250   1.111       .  S
C245        H251   1.081       .  S
C245        C246   1.364       .  D
C246        C850   1.480       .  S
C247        H252   1.086       .  S
C247        C248   1.369       .  D
C248        C941   1.492       .  S
C253        C254   1.545       .  S
C253        C259   1.549       .  S
C253        C257   1.546       .  S
C253        C797   1.544       .  S
C254        H261   1.086       .  S
C254        C255   1.365       .  D
C255        C256   1.530       .  S
C255        C874   1.478       .  S
C256        C260   1.531       .  S
C256        C258   1.534       .  S
C256        H262   1.111       .  S
C257        H263   1.085       .  S
C257        C258   1.367       .  D
C258        C826   1.488       .  S
C259        H264   1.077       .  S
C259        C260   1.363       .  D
C260        C922   1.486       .  S
C265        C266   1.539       .  S
C265        C271   1.536       .  S
C265        C269   1.558       .  S
C265        C706   1.545       .  S
C266        H273   1.086       .  S
C266        C267   1.358       .  D
C267        C268   1.534       .  S
C267        C749   1.479       .  S
C268        C272   1.538       .  S
C268        C270   1.540       .  S
C268        H274   1.110       .  S
C269        H275   1.077       .  S
C269        C270   1.376       .  D
C270        C773   1.502       .  S
C271        H276   1.086       .  S
C271        C272   1.364       .  D
C272        C725   1.488       .  S
C277        C278   1.542       .  S
C277        C283   1.541       .  S
C277        C281   1.550       .  S
C277       C1426   1.547       .  S
C278        H285   1.086       .  S
C278        C279   1.370       .  D
C279        C280   1.541       .  S
C279        C677   1.498       .  S
C280        C284   1.537       .  S
C280        C282   1.537       .  S
C280        H286   1.108       .  S
C281        H287   1.082       .  S
C281        C282   1.363       .  D
C282        C754   1.485       .  S
C283        H288   1.086       .  S
C283        C284   1.366       .  D
C284        C658   1.490       .  S
C289        C290   1.556       .  S
C289        C295   1.535       .  S
C289        C293   1.538       .  S
C289       C1109   1.537       .  S
C290        H297   1.081       .  S
C290        C291   1.372       .  D
C291        C292   1.534       .  S
C291        C778   1.492       .  S
C292        C296   1.535       .  S
C292        C294   1.535       .  S
C292        H298   1.110       .  S
C293        H299   1.086       .  S
C293        C294   1.360       .  D
C294        C682   1.475       .  S
C295        H300   1.086       .  S
C295        C296   1.363       .  D
C296        C629   1.489       .  S
C301        C302   1.558       .  S
C301        C307   1.537       .  S
C301        C305   1.544       .  S
C301        C557   1.549       .  S
C302        H309   1.080       .  S
C302        C303   1.379       .  D
C303        C304   1.543       .  S
C303        C605   1.515       .  S
C304        C308   1.529       .  S
C304        C306   1.537       .  S
C304        H310   1.103       .  S
C305        H311   1.086       .  S
C305        C306   1.366       .  D
C306        C581   1.487       .  S
C307        H312   1.086       .  S
C307        C308   1.358       .  D
C308        C730   1.480       .  S
C313        C314   1.554       .  S
C313        C319   1.542       .  S
C313        C317   1.544       .  S
C313       C1354   1.550       .  S
C314        H321   1.076       .  S
C314        C315   1.368       .  D
C315        C316   1.536       .  S
C315        C586   1.491       .  S
C316        C320   1.539       .  S
C316        C318   1.535       .  S
C316        H322   1.111       .  S
C317        H323   1.086       .  S
C317        C318   1.364       .  D
C318        C533   1.483       .  S
C319        H324   1.086       .  S
C319        C320   1.368       .  D
C320        C653   1.493       .  S
C325        C326   1.552       .  S
C325        C331   1.540       .  S
C325        C329   1.541       .  S
C325       C1066   1.547       .  S
C326        H333   1.077       .  S
C326        C327   1.366       .  D
C327        C328   1.536       .  S
C327        C538   1.499       .  S
C328        C332   1.542       .  S
C328        C330   1.532       .  S
C328        H334   1.105       .  S
C329        H335   1.086       .  S
C329        C330   1.361       .  D
C330        C610   1.479       .  S
C331        H336   1.085       .  S
C331        C332   1.373       .  D
C332        C634   1.499       .  S
N337        N338   1.322       .  A
N337        C341   1.350       .  A
N337       Cu345   2.092       .  S
N338        C339   1.342       .  A
N338       Cu344   2.066       .  S
C339        C340   1.381       .  A
C339        H342   1.082       .  S
C340        C341   1.389       .  A
C340        C485   1.484       .  S
C341        H343   1.082       .  S
Cu344       N347   2.066       .  S
Cu345       N355   2.093       .  S
Cu346       N348   2.084       .  S
Cu346       N354   2.085       .  S
N347        N348   1.321       .  A
N347        C351   1.342       .  A
N348        C349   1.349       .  A
C349        C350   1.389       .  A
C349        H352   1.082       .  S
C350        C351   1.384       .  A
C350        C514   1.486       .  S
C351        H353   1.082       .  S
N354        N355   1.324       .  A
N354        C358   1.346       .  A
N355        C356   1.348       .  A
C356        C357   1.388       .  A
C356        H359   1.082       .  S
C357        C358   1.384       .  A
C357        C701   1.488       .  S
C358        H360   1.082       .  S
N361        N362   1.324       .  A
N361        C365   1.351       .  A
N361       Cu369   2.098       .  S
N362        C363   1.344       .  A
N362       Cu368   2.079       .  S
C363        C364   1.382       .  A
C363        H366   1.082       .  S
C364        C365   1.388       .  A
C364        C461   1.485       .  S
C365        H367   1.082       .  S
Cu368       N371   2.078       .  S
Cu369       N379   2.099       .  S
Cu370       N372   2.080       .  S
Cu370       N378   2.081       .  S
N371        N372   1.321       .  A
N371        C375   1.346       .  A
N372        C373   1.347       .  A
C373        C374   1.388       .  A
C373        H376   1.081       .  S
C374        C375   1.387       .  A
C374        C509   1.490       .  S
C375        H377   1.082       .  S
N378        N379   1.324       .  A
N378        C382   1.345       .  A
N379        C380   1.351       .  A
C380        C381   1.388       .  A
C380        H383   1.082       .  S
C381        C382   1.384       .  A
C381        C562   1.489       .  S
C382        H384   1.082       .  S
N385        N386   1.322       .  A
N385        C389   1.351       .  A
N385       Cu393   2.090       .  S
N386        C387   1.340       .  A
N386       Cu392   2.067       .  S
C387        C388   1.382       .  A
C387        H390   1.082       .  S
C388        C389   1.391       .  A
C388        C490   1.487       .  S
C389        H391   1.081       .  S
Cu392       N395   2.067       .  S
Cu393       N403   2.090       .  S
Cu394       N396   2.067       .  S
Cu394       N402   2.068       .  S
N395        N396   1.318       .  A
N395        C399   1.343       .  A
N396        C397   1.345       .  A
C397        C398   1.389       .  A
C397        H400   1.081       .  S
C398        C399   1.388       .  A
C398        C442   1.489       .  S
C399        H401   1.082       .  S
N402        N403   1.324       .  A
N402        C406   1.343       .  A
N403        C404   1.348       .  A
C404        C405   1.386       .  A
C404        H407   1.082       .  S
C405        C406   1.380       .  A
C405        C898   1.478       .  S
C406        H408   1.082       .  S
N409        N410   1.321       .  A
N409        C413   1.350       .  A
N409       Cu417   2.091       .  S
N410        C411   1.341       .  A
N410       Cu416   2.065       .  S
C411        C412   1.384       .  A
C411        H414   1.082       .  S
C412        C413   1.391       .  A
C412        C466   1.489       .  S
C413        H415   1.082       .  S
Cu416       N419   2.064       .  S
Cu417       N427   2.091       .  S
Cu418       N420   2.073       .  S
Cu418       N426   2.075       .  S
N419        N420   1.319       .  A
N419        C423   1.341       .  A
N420        C421   1.347       .  A
C421        C422   1.389       .  A
C421        H424   1.082       .  S
C422        C423   1.385       .  A
C422        C437   1.486       .  S
C423        H425   1.081       .  S
N426        N427   1.325       .  A
N426        C430   1.343       .  A
N427        C428   1.348       .  A
C428        C429   1.387       .  A
C428        H431   1.082       .  S
C429        C430   1.381       .  A
C429        C802   1.482       .  S
C430        H432   1.082       .  S
C433        C434   1.408       .  A
C433        C438   1.404       .  A
C433        C447   1.443       .  S
C434        C435   1.398       .  A
C434        C439   1.479       .  S
C435        C436   1.397       .  A
C435        H454   1.085       .  S
C436        C437   1.416       .  A
C436        C448   1.443       .  S
C437        C438   1.408       .  A
C438        H453   1.084       .  S
C439        C440   1.399   1_554  A
C439        C444   1.407   1_554  A
C440        C441   1.402       .  A
C440        H455   1.085       .  S
C441        C442   1.418       .  A
C441        C445   1.443       .  S
C442        C443   1.407       .  A
C443        C444   1.399       .  A
C443        H456   1.084       .  S
C444        C446   1.444   1_556  S
C445        N449   1.157       .  T
C446        N450   1.157       .  T
C447        N452   1.157       .  T
C448        N451   1.157       .  T
C457        C458   1.413       .  A
C457        C462   1.405       .  A
C457        C471   1.443       .  S
C458        C459   1.404       .  A
C458        C463   1.493       .  S
C459        C460   1.402       .  A
C459        H478   1.085       .  S
C460        C461   1.412       .  A
C460        C472   1.444       .  S
C461        C462   1.404       .  A
C462        H477   1.085       .  S
C463        C464   1.403       .  A
C463        C468   1.412       .  A
C464        C465   1.400       .  A
C464        H479   1.085       .  S
C465        C466   1.415       .  A
C465        C469   1.444       .  S
C466        C467   1.406       .  A
C467        C468   1.405       .  A
C467        H480   1.084       .  S
C468        C470   1.443       .  S
C469        N473   1.157       .  T
C470        N474   1.157       .  T
C471        N476   1.157       .  T
C472        N475   1.157       .  T
C481        C482   1.411       .  A
C481        C486   1.401       .  A
C481        C495   1.444       .  S
C482        C483   1.405       .  A
C482        C487   1.489       .  S
C483        C484   1.403       .  A
C483        H502   1.085       .  S
C484        C485   1.413       .  A
C484        C496   1.443       .  S
C485        C486   1.405       .  A
C486        H501   1.085       .  S
C487        C488   1.405       .  A
C487        C492   1.410       .  A
C488        C489   1.406       .  A
C488        H503   1.084       .  S
C489        C490   1.415       .  A
C489        C493   1.443       .  S
C490        C491   1.405       .  A
C491        C492   1.397       .  A
C491        H504   1.085       .  S
C492        C494   1.444       .  S
C493        N497   1.157       .  T
C494        N498   1.157       .  T
C495        N500   1.157       .  T
C496        N499   1.157       .  T
C505        C506   1.409       .  A
C505        C510   1.401       .  A
C505        C519   1.444       .  S
C506        C507   1.401       .  A
C506        C511   1.486       .  S
C507        C508   1.404       .  A
C507        H526   1.085       .  S
C508        C509   1.417       .  A
C508        C520   1.443       .  S
C509        C510   1.406       .  A
C510        H525   1.084       .  S
C511        C512   1.401   1_554  A
C511        C516   1.410   1_554  A
C512        C513   1.401       .  A
C512        H527   1.085   1_556  S
C513        C514   1.415       .  A
C513        C517   1.444       .  S
C514        C515   1.406       .  A
C515        C516   1.403       .  A
C515        H528   1.084       .  S
C516        C518   1.443   1_556  S
C517        N521   1.157       .  T
C518        N522   1.157       .  T
C519        N524   1.157       .  T
C520        N523   1.157       .  T
C529        C530   1.414       .  A
C529        C534   1.405       .  A
C529        C543   1.444       .  S
C530        C531   1.406       .  A
C530        C535   1.495       .  S
C531        C532   1.400       .  A
C531        H550   1.085       .  S
C532        C533   1.410       .  A
C532        C544   1.444       .  S
C533        C534   1.402       .  A
C534        H549   1.085       .  S
C535        C536   1.404       .  A
C535        C540   1.414       .  A
C536        C537   1.403       .  A
C536        H551   1.085       .  S
C537        C538   1.419       .  A
C537        C541   1.444       .  S
C538        C539   1.406       .  A
C539        C540   1.402       .  A
C539        H552   1.084       .  S
C540        C542   1.444       .  S
C541        N545   1.157       .  T
C542        N546   1.157       .  T
C543        N548   1.157       .  T
C544        N547   1.157       .  T
C553        C554   1.411       .  A
C553        C558   1.407       .  A
C553        C567   1.444       .  S
C554        C555   1.401       .  A
C554        C559   1.497       .  S
C555        C556   1.404       .  A
C555        H574   1.085       .  S
C556        C557   1.425       .  A
C556        C568   1.445       .  S
C557        C558   1.414       .  A
C558        H573   1.077       .  S
C559        C560   1.404       .  A
C559        C564   1.415       .  A
C560        C561   1.403       .  A
C560        H575   1.085       .  S
C561        C562   1.413       .  A
C561        C565   1.444       .  S
C562        C563   1.405       .  A
C563        C564   1.407       .  A
C563        H576   1.084       .  S
C564        C566   1.443       .  S
C565        N569   1.157       .  T
C566        N570   1.157       .  T
C567        N572   1.157       .  T
C568        N571   1.157       .  T
C577        C578   1.413       .  A
C577        C582   1.404       .  A
C577        C591   1.444       .  S
C578        C579   1.403       .  A
C578        C583   1.490       .  S
C579        C580   1.402       .  A
C579        H598   1.085       .  S
C580        C581   1.414       .  A
C580        C592   1.444       .  S
C581        C582   1.403       .  A
C582        H597   1.085       .  S
C583        C584   1.405       .  A
C583        C588   1.412       .  A
C584        C585   1.406       .  A
C584        H599   1.084       .  S
C585        C586   1.415       .  A
C585        C589   1.443       .  S
C586        C587   1.402       .  A
C587        C588   1.397       .  A
C587        H600   1.081       .  S
C588        C590   1.444       .  S
C589        N593   1.157       .  T
C590        N594   1.157       .  T
C591        N596   1.157       .  T
C592        N595   1.157       .  T
C601        C602   1.409       .  A
C601        C606   1.409       .  A
C601        C615   1.443       .  S
C602        C603   1.397       .  A
C602        C607   1.495       .  S
C603        C604   1.397       .  A
C603        H622   1.086       .  S
C604        C605   1.425       .  A
C604        C616   1.438       .  S
C605        C606   1.415       .  A
C606        H621   1.083       .  S
C607        C608   1.407       .  A
C607        C612   1.415       .  A
C608        C609   1.406       .  A
C608        H623   1.084       .  S
C609        C610   1.409       .  A
C609        C613   1.444       .  S
C610        C611   1.399       .  A
C611        C612   1.400       .  A
C611        H624   1.085       .  S
C612        C614   1.444       .  S
C613        N617   1.157       .  T
C614        N618   1.157       .  T
C615        N620   1.157       .  T
C616        N619   1.156       .  T
C625        C626   1.407       .  A
C625        C630   1.399       .  A
C625        C639   1.444       .  S
C626        C627   1.399       .  A
C626        C631   1.477       .  S
C627        C628   1.400       .  A
C627        H646   1.085       .  S
C628        C629   1.417       .  A
C628        C640   1.444       .  S
C629        C630   1.405       .  A
C630        H645   1.081       .  S
C631        C632   1.396       .  A
C631        C636   1.404       .  A
C632        C633   1.399       .  A
C632        H647   1.085       .  S
C633        C634   1.420       .  A
C633        C637   1.440       .  S
C634        C635   1.412       .  A
C635        C636   1.400       .  A
C635        H648   1.084       .  S
C636        C638   1.444       .  S
C637        N641   1.157       .  T
C638        N642   1.157       .  T
C639        N644   1.157       .  T
C640        N643   1.157       .  T
C649        C650   1.409       .  A
C649        C654   1.404       .  A
C649        C663   1.443       .  S
C650        C651   1.401       .  A
C650        C655   1.486       .  S
C651        C652   1.403       .  A
C651        H670   1.085       .  S
C652        C653   1.415       .  A
C652        C664   1.443       .  S
C653        C654   1.407       .  A
C654        H669   1.085       .  S
C655        C656   1.402       .  A
C655        C660   1.409       .  A
C656        C657   1.403       .  A
C656        H671   1.085       .  S
C657        C658   1.414       .  A
C657        C661   1.443       .  S
C658        C659   1.406       .  A
C659        C660   1.403       .  A
C659        H672   1.084       .  S
C660        C662   1.443       .  S
C661        N665   1.157       .  T
C662        N666   1.157       .  T
C663        N668   1.157       .  T
C664        N667   1.157       .  T
C673        C674   1.409       .  A
C673        C678   1.405       .  A
C673        C687   1.443       .  S
C674        C675   1.398       .  A
C674        C679   1.487       .  S
C675        C676   1.396       .  A
C675        H694   1.086       .  S
C676        C677   1.418       .  A
C676        C688   1.439       .  S
C677        C678   1.410       .  A
C678        H693   1.084       .  S
C679        C680   1.405       .  A
C679        C684   1.413       .  A
C680        C681   1.401       .  A
C680        H695   1.084       .  S
C681        C682   1.407       .  A
C681        C685   1.443       .  S
C682        C683   1.400       .  A
C683        C684   1.398       .  A
C683        H696   1.085       .  S
C684        C686   1.444       .  S
C685        N689   1.157       .  T
C686        N690   1.157       .  T
C687        N692   1.157       .  T
C688        N691   1.156       .  T
C697        C698   1.413       .  A
C697        C702   1.404       .  A
C697        C711   1.444       .  S
C698        C699   1.404       .  A
C698        C703   1.494       .  S
C699        C700   1.404       .  A
C699        H718   1.085       .  S
C700        C701   1.414       .  A
C700        C712   1.443       .  S
C701        C702   1.405       .  A
C702        H717   1.085       .  S
C703        C704   1.400       .  A
C703        C708   1.410       .  A
C704        C705   1.402       .  A
C704        H719   1.084       .  S
C705        C706   1.425       .  A
C705        C709   1.446       .  S
C706        C707   1.413       .  A
C707        C708   1.405       .  A
C707        H720   1.074       .  S
C708        C710   1.444       .  S
C709        N713   1.157       .  T
C710        N714   1.157       .  T
C711        N716   1.157       .  T
C712        N715   1.157       .  T
C721        C722   1.409       .  A
C721        C726   1.400       .  A
C721        C735   1.444       .  S
C722        C723   1.405       .  A
C722        C727   1.488       .  S
C723        C724   1.404       .  A
C723        H742   1.085       .  S
C724        C725   1.411       .  A
C724        C736   1.443       .  S
C725        C726   1.406       .  A
C726        H741   1.085       .  S
C727        C728   1.404       .  A
C727        C732   1.412       .  A
C728        C729   1.402       .  A
C728        H743   1.085       .  S
C729        C730   1.410       .  A
C729        C733   1.444       .  S
C730        C731   1.402       .  A
C731        C732   1.402       .  A
C731        H744   1.085       .  S
C732        C734   1.443       .  S
C733        N737   1.157       .  T
C734        N738   1.157       .  T
C735        N740   1.157       .  T
C736        N739   1.157       .  T
C745        C746   1.410       .  A
C745        C750   1.404       .  A
C745        C759   1.443       .  S
C746        C747   1.401       .  A
C746        C751   1.483       .  S
C747        C748   1.395       .  A
C747        H766   1.085       .  S
C748        C749   1.409       .  A
C748        C760   1.440       .  S
C749        C750   1.404       .  A
C750        H765   1.085       .  S
C751        C752   1.403       .  A
C751        C756   1.410       .  A
C752        C753   1.400       .  A
C752        H767   1.085       .  S
C753        C754   1.412       .  A
C753        C757   1.443       .  S
C754        C755   1.406       .  A
C755        C756   1.400       .  A
C755        H768   1.084       .  S
C756        C758   1.444       .  S
C757        N761   1.157       .  T
C758        N762   1.157       .  T
C759        N764   1.157       .  T
C760        N763   1.156       .  T
C769        C770   1.407       .  A
C769        C774   1.401       .  A
C769        C783   1.444       .  S
C770        C771   1.401       .  A
C770        C775   1.487       .  S
C771        C772   1.405       .  A
C771        H790   1.085       .  S
C772        C773   1.420       .  A
C772        C784   1.443       .  S
C773        C774   1.409       .  A
C774        H789   1.084       .  S
C775        C776   1.404       .  A
C775        C780   1.410       .  A
C776        C777   1.407       .  A
C776        H791   1.084       .  S
C777        C778   1.414       .  A
C777        C781   1.443       .  S
C778        C779   1.405       .  A
C779        C780   1.398       .  A
C779        H792   1.083       .  S
C780        C782   1.445       .  S
C781        N785   1.157       .  T
C782        N786   1.157       .  T
C783        N788   1.157       .  T
C784        N787   1.157       .  T
C793        C794   1.407       .  A
C793        C798   1.400       .  A
C793        C807   1.445       .  S
C794        C795   1.402       .  A
C794        C799   1.491       .  S
C795        C796   1.402       .  A
C795        H814   1.084       .  S
C796        C797   1.422       .  A
C796        C808   1.444       .  S
C797        C798   1.416       .  A
C798        H813   1.071       .  S
C799        C800   1.405       .  A
C799        C804   1.412       .  A
C800        C801   1.403       .  A
C800        H815   1.084       .  S
C801        C802   1.412       .  A
C801        C805   1.443       .  S
C802        C803   1.404       .  A
C803        C804   1.399       .  A
C803        H816   1.085       .  S
C804        C806   1.444       .  S
C805        N809   1.157       .  T
C806        N810   1.157       .  T
C807        N812   1.157       .  T
C808        N811   1.157       .  T
C817        C818   1.413       .  A
C817        C822   1.399       .  A
C817        C831   1.445       .  S
C818        C819   1.406       .  A
C818        C823   1.488       .  S
C819        C820   1.402       .  A
C819        H838   1.085       .  S
C820        C821   1.407       .  A
C820        C832   1.443       .  S
C821        C822   1.401       .  A
C822        H837   1.084       .  S
C823        C824   1.404       .  A
C823        C828   1.411       .  A
C824        C825   1.404       .  A
C824        H839   1.085       .  S
C825        C826   1.415       .  A
C825        C829   1.442       .  S
C826        C827   1.403       .  A
C827        C828   1.397       .  A
C827        H840   1.085       .  S
C828        C830   1.444       .  S
C829        N833   1.157       .  T
C830        N834   1.157       .  T
C831        N836   1.157       .  T
C832        N835   1.157       .  T
C841        C842   1.408       .  A
C841        C846   1.397       .  A
C841        C855   1.445       .  S
C842        C843   1.400       .  A
C842        C847   1.480       .  S
C843        C844   1.403       .  A
C843        H862   1.085       .  S
C844        C845   1.418       .  A
C844        C856   1.443       .  S
C845        C846   1.406       .  A
C846        H861   1.084       .  S
C847        C848   1.402       .  A
C847        C852   1.409       .  A
C848        C849   1.401       .  A
C848        H863   1.085       .  S
C849        C850   1.412       .  A
C849        C853   1.444       .  S
C850        C851   1.402       .  A
C851        C852   1.400       .  A
C851        H864   1.085       .  S
C852        C854   1.444       .  S
C853        N857   1.157       .  T
C854        N858   1.157       .  T
C855        N860   1.157       .  T
C856        N859   1.157       .  T
C865        C866   1.412       .  A
C865        C870   1.400       .  A
C865        C879   1.444       .  S
C866        C867   1.405       .  A
C866        C871   1.490       .  S
C867        C868   1.402       .  A
C867        H886   1.085       .  S
C868        C869   1.415       .  A
C868        C880   1.444       .  S
C869        C870   1.404       .  A
C870        H885   1.085       .  S
C871        C872   1.407       .  A
C871        C876   1.414       .  A
C872        C873   1.404       .  A
C872        H887   1.084       .  S
C873        C874   1.409       .  A
C873        C877   1.443       .  S
C874        C875   1.400       .  A
C875        C876   1.398       .  A
C875        H888   1.085       .  S
C876        C878   1.445       .  S
C877        N881   1.157       .  T
C878        N882   1.157       .  T
C879        N884   1.157       .  T
C880        N883   1.157       .  T
C889        C890   1.405       .  A
C889        C894   1.400       .  A
C889        C903   1.445       .  S
C890        C891   1.399       .  A
C890        C895   1.484       .  S
C891        C892   1.402       .  A
C891        H910   1.084       .  S
C892        C893   1.424       .  A
C892        C904   1.445       .  S
C893        C894   1.415       .  A
C894        H909   1.073       .  S
C895        C896   1.402       .  A
C895        C900   1.411       .  A
C896        C897   1.401       .  A
C896        H911   1.085       .  S
C897        C898   1.412       .  A
C897        C901   1.444       .  S
C898        C899   1.403       .  A
C899        C900   1.401       .  A
C899        H912   1.085       .  S
C900        C902   1.444       .  S
C901        N905   1.157       .  T
C902        N906   1.157       .  T
C903        N908   1.157       .  T
C904        N907   1.157       .  T
C913        C914   1.408       .  A
C913        C918   1.402       .  A
C913        C927   1.443       .  S
C914        C915   1.400       .  A
C914        C919   1.481       .  S
C915        C916   1.400       .  A
C915        H934   1.085       .  S
C916        C917   1.416       .  A
C916        C928   1.444       .  S
C917        C918   1.405       .  A
C918        H933   1.084       .  S
C919        C920   1.400       .  A
C919        C924   1.409       .  A
C920        C921   1.400       .  A
C920        H935   1.085       .  S
C921        C922   1.415       .  A
C921        C925   1.445       .  S
C922        C923   1.404       .  A
C923        C924   1.402       .  A
C923        H936   1.085       .  S
C924        C926   1.443       .  S
C925        N929   1.157       .  T
C926        N930   1.157       .  T
C927        N932   1.157       .  T
C928        N931   1.157       .  T
C937        C938   1.411       .  A
C937        C942   1.405       .  A
C937        C951   1.444       .  S
C938        C939   1.402       .  A
C938        C943   1.490       .  S
C939        C940   1.403       .  A
C939        H958   1.085       .  S
C940        C941   1.415       .  A
C940        C952   1.443       .  S
C941        C942   1.406       .  A
C942        H957   1.085       .  S
C943        C944   1.403       .  A
C943        C948   1.411       .  A
C944        C945   1.403       .  A
C944        H959   1.086       .  S
C945        C946   1.414       .  A
C945        C949   1.444       .  S
C946        C947   1.404       .  A
C947        C948   1.404       .  A
C947        H960   1.086       .  S
C948        C950   1.443       .  S
C949        N953   1.157       .  T
C950        N954   1.157       .  T
C951        N956   1.157       .  T
C952        N955   1.157       .  T
C961        C962   1.407       .  A
C961        C966   1.406       .  A
C961        C975   1.443       .  S
C962        C963   1.397       .  A
C962        C967   1.482       .  S
C963        C964   1.398       .  A
C963        H982   1.086       .  S
C964        C965   1.415       .  A
C964        C976   1.439       .  S
C965        C966   1.410       .  A
C966        H981   1.084       .  S
C967        C968   1.398       .  A
C967        C972   1.409       .  A
C968        C969   1.399       .  A
C968        H983   1.085       .  S
C969        C970   1.415       .  A
C969        C973   1.441       .  S
C970        C971   1.407       .  A
C971        C972   1.405       .  A
C971        H984   1.083       .  S
C972        C974   1.443       .  S
C973        N977   1.157       .  T
C974        N978   1.157       .  T
C975        N980   1.157       .  T
C976        N979   1.156       .  T
C985        C986   1.407       .  A
C985        C990   1.401       .  A
C985        C999   1.444       .  S
C986        C987   1.401       .  A
C986        C991   1.485       .  S
C987        C988   1.404       .  A
C987       H1006   1.085       .  S
C988        C989   1.417       .  A
C988       C1000   1.442       .  S
C989        C990   1.410       .  A
C990       H1005   1.084       .  S
C991        C992   1.401       .  A
C991        C996   1.409       .  A
C992        C993   1.402       .  A
C992       H1007   1.085       .  S
C993        C994   1.416       .  A
C993        C997   1.443       .  S
C994        C995   1.407       .  A
C995        C996   1.402       .  A
C995       H1008   1.085       .  S
C996        C998   1.443       .  S
C997       N1001   1.157       .  T
C998       N1002   1.157       .  T
C999       N1004   1.157       .  T
C1000      N1003   1.157       .  T
C1009      C1010   1.415       .  A
C1009      C1014   1.408       .  A
C1009      C1023   1.444       .  S
C1010      C1011   1.404       .  A
C1010      C1015   1.504       .  S
C1011      C1012   1.403       .  A
C1011      H1030   1.085       .  S
C1012      C1013   1.416       .  A
C1012      C1024   1.443       .  S
C1013      C1014   1.409       .  A
C1014      H1029   1.084       .  S
C1015      C1016   1.407       .  A
C1015      C1020   1.418       .  A
C1016      C1017   1.403       .  A
C1016      H1031   1.085       .  S
C1017      C1018   1.410       .  A
C1017      C1021   1.442       .  S
C1018      C1019   1.401       .  A
C1019      C1020   1.406       .  A
C1019      H1032   1.085       .  S
C1020      C1022   1.443       .  S
C1021      N1025   1.157       .  T
C1022      N1026   1.157       .  T
C1023      N1028   1.157       .  T
C1024      N1027   1.157       .  T
C1033      C1034   1.410       .  A
C1033      C1038   1.405       .  A
C1033      C1047   1.443       .  S
C1034      C1035   1.401       .  A
C1034      C1039   1.484       .  S
C1035      C1036   1.396       .  A
C1035      H1054   1.084       .  S
C1036      C1037   1.408       .  A
C1036      C1048   1.441       .  S
C1037      C1038   1.406       .  A
C1038      H1053   1.085       .  S
C1039      C1040   1.402       .  A
C1039      C1044   1.410       .  A
C1040      C1041   1.401       .  A
C1040      H1055   1.085       .  S
C1041      C1042   1.413       .  A
C1041      C1045   1.443       .  S
C1042      C1043   1.406       .  A
C1043      C1044   1.402       .  A
C1043      H1056   1.084       .  S
C1044      C1046   1.444       .  S
C1045      N1049   1.157       .  T
C1046      N1050   1.157       .  T
C1047      N1052   1.157       .  T
C1048      N1051   1.156       .  T
C1057      C1058   1.413       .  A
C1057      C1062   1.405       .  A
C1057      C1071   1.444       .  S
C1058      C1059   1.402       .  A
C1058      C1063   1.490       .  S
C1059      C1060   1.401       .  A
C1059      H1078   1.085       .  S
C1060      C1061   1.414       .  A
C1060      C1072   1.444       .  S
C1061      C1062   1.405       .  A
C1062      H1077   1.085       .  S
C1063      C1064   1.401       .  A
C1063      C1068   1.406       .  A
C1064      C1065   1.405       .  A
C1064      H1079   1.084       .  S
C1065      C1066   1.423       .  A
C1065      C1069   1.445       .  S
C1066      C1067   1.416       .  A
C1067      C1068   1.401       .  A
C1067      H1080   1.074       .  S
C1068      C1070   1.445       .  S
C1069      N1073   1.157       .  T
C1070      N1074   1.157       .  T
C1071      N1076   1.157       .  T
C1072      N1075   1.157       .  T
C1081      C1082   1.409       .  A
C1081      C1086   1.404       .  A
C1081      C1095   1.443       .  S
C1082      C1083   1.401       .  A
C1082      C1087   1.486   1_556  S
C1083      C1084   1.399       .  A
C1083      H1102   1.085   1_556  S
C1084      C1085   1.417       .  A
C1084      C1096   1.444       .  S
C1085      C1086   1.408       .  A
C1086      H1101   1.084       .  S
C1087      C1088   1.401       .  A
C1087      C1092   1.409       .  A
C1088      C1089   1.404       .  A
C1088      H1103   1.085       .  S
C1089      C1090   1.417       .  A
C1089      C1093   1.442       .  S
C1090      C1091   1.408       .  A
C1091      C1092   1.400       .  A
C1091      H1104   1.084       .  S
C1092      C1094   1.445       .  S
C1093      N1097   1.157       .  T
C1094      N1098   1.157       .  T
C1095      N1100   1.157   1_556  T
C1096      N1099   1.157       .  T
C1105      C1106   1.408       .  A
C1105      C1110   1.402       .  A
C1105      C1119   1.444       .  S
C1106      C1107   1.398       .  A
C1106      C1111   1.485       .  S
C1107      C1108   1.398       .  A
C1107      H1126   1.085       .  S
C1108      C1109   1.424       .  A
C1108      C1120   1.446       .  S
C1109      C1110   1.412       .  A
C1110      H1125   1.077       .  S
C1111      C1112   1.400       .  A
C1111      C1116   1.409       .  A
C1112      C1113   1.398       .  A
C1112      H1127   1.085       .  S
C1113      C1114   1.418       .  A
C1113      C1117   1.443       .  S
C1114      C1115   1.409       .  A
C1115      C1116   1.402       .  A
C1115      H1128   1.083       .  S
C1116      C1118   1.444       .  S
C1117      N1121   1.157       .  T
C1118      N1122   1.157       .  T
C1119      N1124   1.157       .  T
C1120      N1123   1.157       .  T
C1129      C1130   1.411   1_655  A
C1129      C1134   1.404       .  A
C1129      C1143   1.443       .  S
C1130      C1131   1.402   1_455  A
C1130      C1135   1.488       .  S
C1131      C1132   1.399       .  A
C1131      H1150   1.085   1_655  S
C1132      C1133   1.414       .  A
C1132      C1144   1.444       .  S
C1133      C1134   1.405       .  A
C1134      H1149   1.084       .  S
C1135      C1136   1.402       .  A
C1135      C1140   1.413       .  A
C1136      C1137   1.399       .  A
C1136      H1151   1.085       .  S
C1137      C1138   1.412       .  A
C1137      C1141   1.444       .  S
C1138      C1139   1.404       .  A
C1139      C1140   1.405       .  A
C1139      H1152   1.084       .  S
C1140      C1142   1.443       .  S
C1141      N1145   1.157       .  T
C1142      N1146   1.157       .  T
C1143      N1148   1.157   1_655  T
C1144      N1147   1.157       .  T
C1153      C1154   1.410       .  A
C1153      C1158   1.402       .  A
C1153      C1167   1.443       .  S
C1154      C1155   1.400       .  A
C1154      C1159   1.483       .  S
C1155      C1156   1.400       .  A
C1155      H1174   1.085       .  S
C1156      C1157   1.414       .  A
C1156      C1168   1.444       .  S
C1157      C1158   1.405       .  A
C1158      H1173   1.084       .  S
C1159      C1160   1.398       .  A
C1159      C1164   1.405       .  A
C1160      C1161   1.403       .  A
C1160      H1175   1.084       .  S
C1161      C1162   1.424       .  A
C1161      C1165   1.445       .  S
C1162      C1163   1.415       .  A
C1163      C1164   1.401       .  A
C1163      H1176   1.073       .  S
C1164      C1166   1.445       .  S
C1165      N1169   1.157       .  T
C1166      N1170   1.157       .  T
C1167      N1172   1.157       .  T
C1168      N1171   1.157       .  T
C1177      C1178   1.411   1_655  A
C1177      C1182   1.399       .  A
C1177      C1191   1.445   1_655  S
C1178      C1179   1.404   1_455  A
C1178      C1183   1.486       .  S
C1179      C1180   1.403       .  A
C1179      H1198   1.085       .  S
C1180      C1181   1.413       .  A
C1180      C1192   1.443       .  S
C1181      C1182   1.404       .  A
C1182      H1197   1.085       .  S
C1183      C1184   1.405       .  A
C1183      C1188   1.409       .  A
C1184      C1185   1.405       .  A
C1184      H1199   1.085       .  S
C1185      C1186   1.414       .  A
C1185      C1189   1.443       .  S
C1186      C1187   1.405       .  A
C1187      C1188   1.397       .  A
C1187      H1200   1.085       .  S
C1188      C1190   1.444       .  S
C1189      N1193   1.157       .  T
C1190      N1194   1.157       .  T
C1191      N1196   1.157       .  T
C1192      N1195   1.157       .  T
C1201      C1202   1.409       .  A
C1201      C1206   1.403       .  A
C1201      C1215   1.444       .  S
C1202      C1203   1.400       .  A
C1202      C1207   1.478       .  S
C1203      C1204   1.397       .  A
C1203      H1222   1.085       .  S
C1204      C1205   1.412       .  A
C1204      C1216   1.444       .  S
C1205      C1206   1.405       .  A
C1206      H1221   1.084       .  S
C1207      C1208   1.401   1_554  A
C1207      C1212   1.408   1_554  A
C1208      C1209   1.401       .  A
C1208      H1223   1.085       .  S
C1209      C1210   1.415       .  A
C1209      C1213   1.443       .  S
C1210      C1211   1.405       .  A
C1211      C1212   1.398       .  A
C1211      H1224   1.085       .  S
C1212      C1214   1.444   1_556  S
C1213      N1217   1.157       .  T
C1214      N1218   1.157       .  T
C1215      N1220   1.157       .  T
C1216      N1219   1.157       .  T
C1225      C1226   1.405       .  A
C1225      C1230   1.402       .  A
C1225      C1239   1.445       .  S
C1226      C1227   1.400       .  A
C1226      C1231   1.488       .  S
C1227      C1228   1.406       .  A
C1227      H1246   1.084       .  S
C1228      C1229   1.424       .  A
C1228      C1240   1.444       .  S
C1229      C1230   1.416       .  A
C1230      H1245   1.074       .  S
C1231      C1232   1.400       .  A
C1231      C1236   1.410       .  A
C1232      C1233   1.402       .  A
C1232      H1247   1.085       .  S
C1233      C1234   1.417       .  A
C1233      C1237   1.444       .  S
C1234      C1235   1.407       .  A
C1235      C1236   1.405       .  A
C1235      H1248   1.084       .  S
C1236      C1238   1.443       .  S
C1237      N1241   1.157       .  T
C1238      N1242   1.157       .  T
C1239      N1244   1.157       .  T
C1240      N1243   1.157       .  T
C1249      C1250   1.408       .  A
C1249      C1254   1.402       .  A
C1249      C1263   1.444       .  S
C1250      C1251   1.402       .  A
C1250      C1255   1.484       .  S
C1251      C1252   1.403       .  A
C1251      H1270   1.085       .  S
C1252      C1253   1.414       .  A
C1252      C1264   1.443       .  S
C1253      C1254   1.407       .  A
C1254      H1269   1.085       .  S
C1255      C1256   1.398       .  A
C1255      C1260   1.405       .  A
C1256      C1257   1.403       .  A
C1256      H1271   1.085       .  S
C1257      C1258   1.424       .  A
C1257      C1261   1.444       .  S
C1258      C1259   1.415       .  A
C1259      C1260   1.401       .  A
C1259      H1272   1.078       .  S
C1260      C1262   1.445       .  S
C1261      N1265   1.157       .  T
C1262      N1266   1.157       .  T
C1263      N1268   1.157       .  T
C1264      N1267   1.157       .  T
C1273      C1274   1.409       .  A
C1273      C1278   1.401       .  A
C1273      C1287   1.443       .  S
C1274      C1275   1.401       .  A
C1274      C1279   1.483       .  S
C1275      C1276   1.399       .  A
C1275      H1294   1.085       .  S
C1276      C1277   1.415       .  A
C1276      C1288   1.444       .  S
C1277      C1278   1.406       .  A
C1278      H1293   1.084       .  S
C1279      C1280   1.402   1_554  A
C1279      C1284   1.410       .  A
C1280      C1281   1.400       .  A
C1280      H1295   1.085   1_556  S
C1281      C1282   1.412       .  A
C1281      C1285   1.443       .  S
C1282      C1283   1.406       .  A
C1283      C1284   1.402   1_556  A
C1283      H1296   1.085       .  S
C1284      C1286   1.444       .  S
C1285      N1289   1.157       .  T
C1286      N1290   1.157       .  T
C1287      N1292   1.157       .  T
C1288      N1291   1.157       .  T
C1297      C1298   1.415       .  A
C1297      C1302   1.407       .  A
C1297      C1311   1.444       .  S
C1298      C1299   1.408       .  A
C1298      C1303   1.506       .  S
C1299      C1300   1.408       .  A
C1299      H1318   1.084       .  S
C1300      C1301   1.414       .  A
C1300      C1312   1.443       .  S
C1301      C1302   1.406       .  A
C1302      H1317   1.085       .  S
C1303      C1304   1.404       .  A
C1303      C1308   1.411       .  A
C1304      C1305   1.407       .  A
C1304      H1319   1.085       .  S
C1305      C1306   1.423       .  A
C1305      C1309   1.443       .  S
C1306      C1307   1.417       .  A
C1307      C1308   1.408       .  A
C1307      H1320   1.079       .  S
C1308      C1310   1.445       .  S
C1309      N1313   1.157       .  T
C1310      N1314   1.157       .  T
C1311      N1316   1.157       .  T
C1312      N1315   1.157       .  T
C1321      C1322   1.408   1_565  A
C1321      C1326   1.399       .  A
C1321      C1335   1.445   1_565  S
C1322      C1323   1.402   1_545  A
C1322      C1327   1.484       .  S
C1323      C1324   1.405       .  A
C1323      H1342   1.085       .  S
C1324      C1325   1.416       .  A
C1324      C1336   1.442       .  S
C1325      C1326   1.407       .  A
C1326      H1341   1.084       .  S
C1327      C1328   1.403       .  A
C1327      C1332   1.408       .  A
C1328      C1329   1.406       .  A
C1328      H1343   1.084       .  S
C1329      C1330   1.414       .  A
C1329      C1333   1.443       .  S
C1330      C1331   1.405       .  A
C1331      C1332   1.398       .  A
C1331      H1344   1.085       .  S
C1332      C1334   1.444       .  S
C1333      N1337   1.157       .  T
C1334      N1338   1.157       .  T
C1335      N1340   1.157       .  T
C1336      N1339   1.157       .  T
C1345      C1346   1.411       .  A
C1345      C1350   1.406       .  A
C1345      C1359   1.443       .  S
C1346      C1347   1.401       .  A
C1346      C1351   1.491       .  S
C1347      C1348   1.403       .  A
C1347      H1366   1.085       .  S
C1348      C1349   1.416       .  A
C1348      C1360   1.443       .  S
C1349      C1350   1.407       .  A
C1350      H1365   1.084       .  S
C1351      C1352   1.400       .  A
C1351      C1356   1.406       .  A
C1352      C1353   1.406       .  A
C1352      H1367   1.083       .  S
C1353      C1354   1.425       .  A
C1353      C1357   1.445       .  S
C1354      C1355   1.416       .  A
C1355      C1356   1.404       .  A
C1355      H1368   1.068       .  S
C1356      C1358   1.444       .  S
C1357      N1361   1.157       .  T
C1358      N1362   1.157       .  T
C1359      N1364   1.157       .  T
C1360      N1363   1.157       .  T
C1369      C1370   1.412       .  A
C1369      C1374   1.407       .  A
C1369      C1383   1.443       .  S
C1370      C1371   1.401       .  A
C1370      C1375   1.492       .  S
C1371      C1372   1.401       .  A
C1371      H1390   1.085       .  S
C1372      C1373   1.416       .  A
C1372      C1384   1.444       .  S
C1373      C1374   1.406       .  A
C1374      H1389   1.084       .  S
C1375      C1376   1.402       .  A
C1375      C1380   1.412   1_545  A
C1376      C1377   1.403   1_545  A
C1376      H1391   1.085       .  S
C1377      C1378   1.416       .  A
C1377      C1381   1.444       .  S
C1378      C1379   1.405       .  A
C1379      C1380   1.406       .  A
C1379      H1392   1.084       .  S
C1380      C1382   1.443   1_565  S
C1381      N1385   1.157       .  T
C1382      N1386   1.157       .  T
C1383      N1388   1.157       .  T
C1384      N1387   1.157       .  T
C1393      C1394   1.409       .  A
C1393      C1398   1.404       .  A
C1393      C1407   1.443       .  S
C1394      C1395   1.399       .  A
C1394      C1399   1.482       .  S
C1395      C1396   1.398       .  A
C1395      H1414   1.085       .  S
C1396      C1397   1.415       .  A
C1396      C1408   1.444       .  S
C1397      C1398   1.406       .  A
C1398      H1413   1.084       .  S
C1399      C1400   1.402   1_554  A
C1399      C1404   1.408   1_554  A
C1400      C1401   1.403       .  A
C1400      H1415   1.085   1_556  S
C1401      C1402   1.416       .  A
C1401      C1405   1.443       .  S
C1402      C1403   1.406       .  A
C1403      C1404   1.399       .  A
C1403      H1416   1.084       .  S
C1404      C1406   1.444   1_556  S
C1405      N1409   1.157       .  T
C1406      N1410   1.157       .  T
C1407      N1412   1.157       .  T
C1408      N1411   1.157       .  T
C1417      C1418   1.410       .  A
C1417      C1422   1.404       .  A
C1417      C1431   1.444       .  S
C1418      C1419   1.405       .  A
C1418      C1423   1.493       .  S
C1419      C1420   1.404       .  A
C1419      H1438   1.085       .  S
C1420      C1421   1.414       .  A
C1420      C1432   1.443       .  S
C1421      C1422   1.408       .  A
C1422      H1437   1.084       .  S
C1423      C1424   1.401       .  A
C1423      C1428   1.408       .  A
C1424      C1425   1.406       .  A
C1424      H1439   1.086       .  S
C1425      C1426   1.424       .  A
C1425      C1429   1.445       .  S
C1426      C1427   1.414       .  A
C1427      C1428   1.400       .  A
C1427      H1440   1.080       .  S
C1428      C1430   1.445       .  S
C1429      N1433   1.157       .  T
C1430      N1434   1.157       .  T
C1431      N1436   1.157       .  T
C1432      N1435   1.157       .  T
