geometry optimzed in LAMMPS
_audit_creation_date              2020-12-01 
_audit_creation_method            'lammps2cif' 
_symmetry_space_group_name_H-M    'P1' 
_symmetry_Int_Tables_number       1 
_symmetry_cell_setting            triclinic 
loop_ 
_symmetry_equiv_pos_as_xyz 
  x,y,z 
_cell_length_a                    37.56521912 
_cell_length_b                    30.523795934302132 
_cell_length_c                    44.07567450256224 
_cell_angle_alpha                 89.98665789066987 
_cell_angle_beta                  89.99902284729639 
_cell_angle_gamma                 120.10373256089068 
loop_ 
_atom_site_label 
_atom_site_type_symbol 
_atom_site_fract_x 
_atom_site_fract_y 
_atom_site_fract_z 
_atom_site_charge 
O1          O  0.14561360  0.42067543  0.58999795    -0.78600
O2          O  0.22589620  0.30970361  0.65797561    -0.63300
O3          O  0.16915552  0.34671011  0.60102011    -1.09900
C4          C  0.05854577  0.26234700  0.67040610     1.08300
O5          O  0.17424074  0.23142004  0.66472268    -0.76500
O6          O  0.10564672  0.20346422  0.63164172    -0.64100
Ni7        Ni  0.19490507  0.41581086  0.58713713     1.34900
C8          C  0.09378441  0.21549024  0.60774617     0.87000
O9          O  0.24578884  0.35282282  0.60389054    -0.77100
O10         O  0.24721350  0.41934720  0.58100463    -0.87300
C11         C  0.21171824  0.26525632  0.66797029     0.86600
O12         O  0.21109754  0.44647593  0.62615627    -0.65500
O13         O  0.07492849  0.23611944  0.67773790    -0.84800
C14         C  0.22453817  0.43392372  0.64893927     0.87400
C15         C  0.26287610  0.39181019  0.58711386     1.09000
H16         H  0.15678457  0.32712787  0.67114424     0.40800
O17         O  0.15059315  0.30514923  0.65377269    -1.07500
O18         O  0.09646361  0.25837053  0.60365792    -0.64100
Ni19       Ni  0.12075601  0.32201205  0.62547851     1.26300
O20         O  0.22370733  0.39200265  0.65122497    -0.64400
O21         O  0.07350010  0.29788448  0.65098779    -0.76700
C22         C  0.10757752  0.38778405  0.58864137     0.86800
O23         O  0.09348843  0.34235291  0.59708500    -0.63800
Ni24       Ni  0.12567892  0.23732892  0.66945787     1.27400
Ni25       Ni  0.19865999  0.32906557  0.62923646     1.26100
H26         H  0.16320564  0.32558279  0.58327193     0.41300
C27         C  0.34534213  0.16995741  0.73704464     0.47700
H28         H  0.34531518  0.16987329  0.71181007    -0.01300
C29         C  0.34506490  0.16976275  0.79621186     0.47800
H30         H  0.34481141  0.16955025  0.82144624    -0.01300
C31         C  0.32145434  0.11689445  0.75108302    -0.15000
C32         C  0.38831201  0.19387229  0.75121730    -0.14800
C33         C  0.32555597  0.19858109  0.75103823    -0.15100
C34         C  0.32130705  0.11678656  0.78211333    -0.15100
C35         C  0.38815068  0.19374050  0.78224086    -0.14700
C36         C  0.32541174  0.19845577  0.78209637    -0.15000
O37         O  0.17403437  0.23096270  0.86842969    -0.78600
O38         O  0.09312163  0.34074079  0.93661551    -0.63300
O39         O  0.15028433  0.30454540  0.87940708    -1.09900
C40         C  0.26272810  0.39113467  0.94582158     1.08300
O41         O  0.14505615  0.41918666  0.94369496    -0.76500
O42         O  0.21039967  0.44562825  0.90711942    -0.64100
Ni43       Ni  0.12552830  0.23688451  0.86351296     1.34900
C44         C  0.22404201  0.43341623  0.88429866     0.87000
O45         O  0.07294818  0.29656516  0.88265914    -0.77100
O46         O  0.07485977  0.23578554  0.85516651    -0.87300
C47         C  0.10707648  0.38608986  0.94515016     0.86600
O48         O  0.10516141  0.20242610  0.90112937    -0.65500
O49         O  0.24703970  0.41862549  0.95196441    -0.84800
C50         C  0.09362228  0.21430281  0.92523349     0.87400
C51         C  0.05820971  0.26151511  0.86293357     1.09000
H52         H  0.16322005  0.32460348  0.94992531     0.40800
O53         O  0.16898076  0.34577067  0.93221043    -1.07500
O54         O  0.22340888  0.39161098  0.88193680    -0.64100
Ni55       Ni  0.19846167  0.32847019  0.90379666     1.26300
O56         O  0.09656533  0.25723386  0.92964794    -0.64400
O57         O  0.24564773  0.35215321  0.92905237    -0.76700
C58         C  0.21146943  0.26481573  0.86504695     0.86800
O59         O  0.22563260  0.30933578  0.87488660    -0.63800
Ni60       Ni  0.19457120  0.41476961  0.94615916     1.27400
Ni61       Ni  0.12041884  0.32091540  0.90795178     1.26100
H62         H  0.15634320  0.32667323  0.86212082     0.41300
O63         O  0.28966362  0.26775622  0.36840597    -0.78600
O64         O  0.36997298  0.15718465  0.43667664    -0.63300
O65         O  0.31313769  0.19391027  0.37947506    -1.09900
C66         C  0.20056908  0.10744018  0.44581315     1.08300
O67         O  0.31791894  0.07877457  0.44362774    -0.76500
O68         O  0.25267999  0.05276898  0.40700537    -0.64100
Ni69       Ni  0.33810872  0.26166086  0.36365883     1.34900
C70         C  0.23910543  0.06516217  0.38421911     0.87000
O71         O  0.39033964  0.20149832  0.38277083    -0.77100
O72         O  0.38877769  0.26268536  0.35546819    -0.87300
C73         C  0.35591461  0.11178616  0.44515682     0.86600
O74         O  0.35826142  0.29585027  0.40135191    -0.65500
O75         O  0.21611638  0.07977163  0.45188982    -0.84800
C76         C  0.36977620  0.28384366  0.42542000     0.87400
C77         C  0.40527217  0.23675332  0.36317453     1.09000
H78         H  0.30006032  0.17358062  0.44997732     0.40800
O79         O  0.29427442  0.15249981  0.43224677    -1.07500
O80         O  0.23985469  0.10704635  0.38193160    -0.64100
Ni81       Ni  0.26495597  0.17010146  0.40386281     1.26300
O82         O  0.36681888  0.24088483  0.42976332    -0.64400
O83         O  0.21777529  0.14652317  0.42912025    -0.76700
C84         C  0.25218614  0.23400782  0.36510067     0.86800
O85         O  0.23791841  0.18949456  0.37499342    -0.63800
Ni86       Ni  0.26850091  0.08341518  0.44609201     1.27400
Ni87       Ni  0.34284513  0.17725753  0.40801634     1.26100
H88         H  0.30703690  0.17182030  0.36216005     0.41300
C89         C  0.11791735  0.32839674  0.23711833     0.47700
H90         H  0.11785654  0.32836273  0.21188395    -0.01300
C91         C  0.11840834  0.32888682  0.29628451     0.47800
H92         H  0.11874887  0.32922072  0.32151827    -0.01300
C93         C  0.13774894  0.29983069  0.25113429    -0.15000
C94         C  0.14185568  0.38152821  0.25104923    -0.14800
C95         C  0.07499467  0.30456002  0.25137774    -0.15100
C96         C  0.13803187  0.30014810  0.28219239    -0.15100
C97         C  0.14208661  0.38179414  0.28207794    -0.14700
C98         C  0.07527493  0.30481922  0.28240169    -0.15000
O99         O  0.31799842  0.07805342  0.08974033    -0.78600
O100        O  0.23719647  0.18839446  0.15793916    -0.63300
O101        O  0.29431541  0.15181547  0.10104140    -1.09900
C102        C  0.40458845  0.23605268  0.17071118     1.08300
O103        O  0.28874961  0.26669814  0.16478081    -0.76500
O104        O  0.35748577  0.29486723  0.13180855    -0.64100
Ni105      Ni  0.26863343  0.08276713  0.08707029     1.34900
C106        C  0.36952805  0.28295686  0.10796170     0.87000
O107        O  0.21759746  0.14557887  0.10377614    -0.77100
O108        O  0.21620865  0.07898283  0.08107078    -0.87300
C109        C  0.25128479  0.23278769  0.16799116     0.86600
O110        O  0.25265412  0.05207967  0.12610276    -0.65500
O111        O  0.38813343  0.26222477  0.17797576    -0.84800
C112        C  0.23898541  0.06442434  0.14883853     0.87400
C113        C  0.20050697  0.10649792  0.08709396     1.09000
H114        H  0.30631977  0.17111427  0.17121586     0.40800
O115        O  0.31257889  0.19313368  0.15386365    -1.07500
O116        O  0.36697727  0.24014487  0.10390271    -0.64100
Ni117      Ni  0.34259669  0.17642232  0.12564970     1.26300
O118        O  0.23955049  0.10619180  0.15109272    -0.64400
O119        O  0.38971843  0.20050771  0.15130349    -0.76700
C120        C  0.35605123  0.11093926  0.08864908     0.86800
O121        O  0.37008885  0.15624212  0.09733863    -0.63800
Ni122      Ni  0.33735635  0.26090254  0.16960005     1.27400
Ni123      Ni  0.26462318  0.16926340  0.12921688     1.26100
H124        H  0.30035376  0.17305236  0.08330547     0.41300
O125        O  0.99217837  0.40122431  0.98105843    -0.78600
O126        O  0.41865837  0.01654782  0.05126859    -0.63300
O127        O  0.46923688  0.47572330  0.99109147    -1.09900
C128        C  0.08749840  0.06666788  0.05302939     1.08300
O129        O  0.47066649  0.09582386  0.05206530    -0.76500
O130        O  0.03760657  0.12231236  0.01744578    -0.64100
Ni131      Ni  0.44344003  0.40710432  0.97699761     1.34900
C132        C  0.04602802  0.10839539  0.99269681     0.87000
O133        O  0.39181137  0.46626774  0.99933968    -0.77100
O134        O  0.39229810  0.40593845  0.97029764    -0.87300
C135        C  0.43321635  0.06312738  0.05707805     0.86600
O136        O  0.42504997  0.37468160  0.01540923    -0.65500
O137        O  0.07086374  0.09163984  0.06250198    -0.84800
C138        C  0.41698174  0.38862161  0.04029746     0.87400
C139        C  0.37556533  0.43065812  0.97999215     1.09000
H140        H  0.49028610  0.00117455  0.05977616     0.40800
O141        O  0.49380125  0.02153372  0.04202649    -1.07500
O142        O  0.04142406  0.06461339  0.98832978    -0.64100
Ni143      Ni  0.02055724  0.00312084  0.01196536     1.26300
O144        O  0.42183917  0.43249455  0.04482067    -0.64400
O145        O  0.07110561  0.03070283  0.03391829    -0.76700
C146        C  0.02971649  0.43381011  0.97628251     0.86800
O147        O  0.04431916  0.48041068  0.98201997    -0.63800
Ni148      Ni  0.01956317  0.09021423  0.05596074     1.27400
Ni149      Ni  0.44243560  0.49398658  0.02121551     1.26100
H150        H  0.47281418  0.99622212  0.97338999     0.41300
O151        O  0.47086374  0.09680735  0.48099569    -0.78600
O152        O  0.04477965  0.48196768  0.55123128    -0.63300
O153        O  0.49400728  0.02248143  0.49104539    -1.09900
C154        C  0.37583376  0.43145480  0.55305130     1.08300
O155        O  0.49284557  0.40264292  0.55222880    -0.76500
O156        O  0.42591411  0.37593629  0.51757493    -0.64100
Ni157      Ni  0.01967938  0.09108684  0.47691836     1.34900
C158        C  0.41739479  0.38974055  0.49282291     0.87000
O159        O  0.07148914  0.03213745  0.49926333    -0.77100
O160        O  0.07088169  0.09241134  0.47021765    -0.87300
C161        C  0.03029871  0.43543211  0.55713233     0.86600
O162        O  0.03807443  0.12357356  0.51529809    -0.65500
O163        O  0.39250771  0.40653408  0.56253923    -0.84800
C164        C  0.04625987  0.10972576  0.54017501     0.87400
C165        C  0.08768507  0.06777267  0.47991777     1.09000
H166        H  0.47306809  0.49716024  0.55975905     0.40800
O167        O  0.46955610  0.47676646  0.54203621    -1.07500
O168        O  0.42189206  0.43346317  0.48840631    -0.64100
Ni169      Ni  0.44271052  0.49501874  0.51195367     1.26300
O170        O  0.04147114  0.06588967  0.54472649    -0.64400
O171        O  0.39219758  0.46741973  0.53393393    -0.76700
C172        C  0.43334163  0.06413332  0.47625081     0.86800
O173        O  0.41884750  0.01754993  0.48198260    -0.63800
Ni174      Ni  0.44388172  0.40811730  0.55605579     1.27400
Ni175      Ni  0.02088560  0.50435449  0.52118004     1.26100
H176        H  0.49043967  0.50197178  0.47335288     0.41300
C177        C  0.16089516  0.09213569  0.07460719    -0.11000
C178        C  0.12737091  0.08020348  0.06463006    -0.12600
C179        C  0.38699787  0.32031455  0.08424557    -0.11000
C180        C  0.40103262  0.35216195  0.06456649    -0.12600
C181        C  0.40634222  0.08023314  0.06849326    -0.11000
C182        C  0.38405600  0.09518368  0.07781431    -0.12600
C183        C  0.03824065  0.28596546  0.23325591    -0.16300
C184        C  0.00797464  0.27217837  0.21787102     0.07800
C185        C  0.47259699  0.25795577  0.20013895     0.09700
C186        C  0.44195765  0.24725419  0.18586572    -0.17100
C187        C  0.16443330  0.42589960  0.23244177    -0.16300
C188        C  0.18313970  0.46036345  0.21503590     0.07800
C189        C  0.20420844  0.99811751  0.19300293     0.09700
C190        C  0.22097518  0.02885382  0.17316558    -0.17100
C191        C  0.22397162  0.24526191  0.18346284    -0.16300
C192        C  0.20197324  0.25519736  0.19824953     0.07800
C193        C  0.17772676  0.26768447  0.21675047     0.09700
C194        C  0.15857709  0.28051856  0.23273442    -0.17100
C195        C  0.16472786  0.42650111  0.30047817    -0.16300
C196        C  0.18332097  0.46106698  0.31787439     0.07800
C197        C  0.20425346  0.49883170  0.33999045     0.09700
C198        C  0.22100647  0.02954102  0.35986927    -0.17100
C199        C  0.03887698  0.28648528  0.30085531    -0.16300
C200        C  0.00880906  0.27280542  0.31642433     0.07800
C201        C  0.47349244  0.25858946  0.33418030     0.09700
C202        C  0.44277172  0.24788595  0.34831382    -0.17100
C203        C  0.15930560  0.28142009  0.30050777    -0.16300
C204        C  0.17874588  0.26905912  0.31648181     0.07800
C205        C  0.20311420  0.25683050  0.33496712     0.09700
C206        C  0.22506452  0.24680296  0.34970644    -0.17100
C207        C  0.16101080  0.09324458  0.45827999    -0.11000
C208        C  0.12752430  0.08132015  0.46829818    -0.12600
C209        C  0.38717828  0.32130184  0.44903660    -0.11000
C210        C  0.40130303  0.35326412  0.46861448    -0.12600
C211        C  0.38388945  0.09607865  0.45607477    -0.11000
C212        C  0.40631568  0.08123691  0.46521483    -0.12600
C213        C  0.06211758  0.14480170  0.96842820    -0.11000
C214        C  0.07622663  0.17674623  0.94882184    -0.12600
C215        C  0.30228991  0.40538738  0.95831652    -0.11000
C216        C  0.33575463  0.41724460  0.96835834    -0.12600
C217        C  0.05663605  0.41657237  0.96520714    -0.11000
C218        C  0.07901741  0.40167335  0.95605370    -0.12600
C219        C  0.02075738  0.25040016  0.84799333    -0.16300
C220        C  0.49006798  0.23977825  0.83383713     0.07800
C221        C  0.45473770  0.22568222  0.81611761     0.09700
C222        C  0.42462109  0.21206912  0.80061393    -0.17100
C223        C  0.29859877  0.07219230  0.80060064    -0.16300
C224        C  0.27991409  0.03769012  0.81802919     0.07800
C225        C  0.25888958  0.99993772  0.84014489     0.09700
C226        C  0.24210589  0.46916899  0.85999931    -0.17100
C227        C  0.23864941  0.25212744  0.84964729    -0.16300
C228        C  0.26059490  0.24211155  0.83489640     0.07800
C229        C  0.28489861  0.22981270  0.81639137     0.09700
C230        C  0.30424989  0.21733697  0.80040657    -0.19300
C231        C  0.02117521  0.25124124  0.68551023    -0.16300
C232        C  0.49055237  0.24057794  0.69979059     0.07800
C233        C  0.45521930  0.22632649  0.71757545     0.09700
C234        C  0.42499976  0.21248845  0.73302008    -0.17100
C235        C  0.24255533  0.46941610  0.67329844    -0.16300
C236        C  0.25927228  0.00012741  0.69314046     0.07800
C237        C  0.28023931  0.03791012  0.71517794     0.09700
C238        C  0.29887822  0.07242585  0.73255712    -0.17100
C239        C  0.23895641  0.25264796  0.68342389    -0.16300
C240        C  0.26097088  0.24271085  0.69818513     0.07800
C241        C  0.28531345  0.23035182  0.71666093     0.09700
C242        C  0.30458499  0.21769092  0.73263562    -0.17100
C243        C  0.06227090  0.14625830  0.56439021    -0.11000
C244        C  0.07634053  0.17815974  0.58402629    -0.12600
C245        C  0.33595911  0.41789052  0.56464688    -0.11000
C246        C  0.30244930  0.40603337  0.57461649    -0.12600
C247        C  0.07963331  0.40363379  0.57782837    -0.11000
C248        C  0.05727741  0.41848844  0.56853170    -0.12600
O249        O  0.14561781  0.92067174  0.58998544    -0.78600
O250        O  0.22590487  0.80970459  0.65796673    -0.63300
O251        O  0.16916006  0.84670768  0.60101237    -1.09900
C252        C  0.05855404  0.76234894  0.67040166     1.08300
O253        O  0.17425009  0.73142236  0.66472000    -0.76500
O254        O  0.10565778  0.70346625  0.63163561    -0.64100
Ni255      Ni  0.19491035  0.91580909  0.58712970     1.34900
C256        C  0.09379113  0.71549036  0.60774147     0.87000
O257        O  0.24579228  0.85281770  0.60387997    -0.77100
O258        O  0.24722113  0.91934972  0.58100165    -0.87300
C259        C  0.21172785  0.76525957  0.66796509     0.86600
O260        O  0.21109554  0.94647055  0.62615013    -0.65500
O261        O  0.07493530  0.73611862  0.67773091    -0.84800
C262        C  0.22454155  0.93392116  0.64893115     0.87400
C263        C  0.26288205  0.89180980  0.58710743     1.09000
H264        H  0.15679474  0.82713036  0.67113783     0.40800
O265        O  0.15060156  0.80515051  0.65376645    -1.07500
O266        O  0.09646711  0.75836914  0.60365441    -0.64100
Ni267      Ni  0.12076275  0.82201257  0.62547321     1.26300
O268        O  0.22371648  0.89200322  0.65121458    -0.64400
O269        O  0.07350958  0.79788884  0.65098501    -0.76700
C270        C  0.10758131  0.88778096  0.58863347     0.86800
O271        O  0.09349260  0.84235160  0.59708073    -0.63800
Ni272      Ni  0.12568724  0.73733027  0.66945238     1.27400
Ni273      Ni  0.19866613  0.82906393  0.62922799     1.26100
H274        H  0.16320834  0.82557898  0.58326373     0.41300
C275        C  0.34535141  0.66996669  0.73704536     0.47700
H276        H  0.34532269  0.66988074  0.71181080    -0.01300
C277        C  0.34507818  0.66977592  0.79621259     0.47800
H278        H  0.34482639  0.66956513  0.82144698    -0.01300
C279        C  0.32146213  0.61690468  0.75108521    -0.15000
C280        C  0.38832234  0.69387983  0.75121638    -0.14800
C281        C  0.32556847  0.69859424  0.75103904    -0.15100
C282        C  0.32131692  0.61679874  0.78211556    -0.15100
C283        C  0.38816307  0.69374977  0.78223999    -0.14700
C284        C  0.32542623  0.69847083  0.78209727    -0.15000
O285        O  0.17405132  0.73097106  0.86843738    -0.78600
O286        O  0.09312470  0.84074051  0.93661547    -0.63300
O287        O  0.15029669  0.80455018  0.87941191    -1.09900
C288        C  0.26273465  0.89114446  0.94582946     1.08300
O289        O  0.14505744  0.91918606  0.94370064    -0.76500
O290        O  0.21039794  0.94562808  0.90712224    -0.64100
Ni291      Ni  0.12554433  0.73689016  0.86351697     1.34900
C292        C  0.22404541  0.93341802  0.88430372     0.87000
O293        O  0.07295869  0.79656579  0.88265838    -0.77100
O294        O  0.07487564  0.73578902  0.85516642    -0.87300
C295        C  0.10707777  0.88608834  0.94515235     0.86600
O296        O  0.10517324  0.70242950  0.90113247    -0.65500
O297        O  0.24704584  0.91863632  0.95196786    -0.84800
C298        C  0.09363026  0.71430410  0.92523554     0.87400
C299        C  0.05822341  0.76151687  0.86293198     1.09000
H300        H  0.16322469  0.82460759  0.94993074     0.40800
O301        O  0.16898648  0.84577411  0.93221590    -1.07500
O302        O  0.22341949  0.89161682  0.88194512    -0.64100
Ni303      Ni  0.19847155  0.82847585  0.90380437     1.26300
O304        O  0.09657226  0.75723478  0.92964973    -0.64400
O305        O  0.24565481  0.85215960  0.92906306    -0.76700
C306        C  0.21148593  0.76482590  0.86505496     0.86800
O307        O  0.22564710  0.80934482  0.87489603    -0.63800
Ni308      Ni  0.19457465  0.91477392  0.94616334     1.27400
Ni309      Ni  0.12042675  0.82091741  0.90795415     1.26100
H310        H  0.15635705  0.82667890  0.86212533     0.41300
O311        O  0.28965492  0.76775421  0.36840907    -0.78600
O312        O  0.36996907  0.65718369  0.43667640    -0.63300
O313        O  0.31312859  0.69390727  0.37947814    -1.09900
C314        C  0.20056168  0.60743479  0.44581430     1.08300
O315        O  0.31791492  0.57877633  0.44363749    -0.76500
O316        O  0.25268652  0.55277544  0.40700492    -0.64100
Ni317      Ni  0.33809915  0.76165703  0.36366037     1.34900
C318        C  0.23910498  0.56516616  0.38422175     0.87000
O319        O  0.39032969  0.70149252  0.38276945    -0.77100
O320        O  0.38876744  0.76268035  0.35546796    -0.87300
C321        C  0.35591095  0.61178749  0.44516127     0.86600
O322        O  0.35825474  0.79584791  0.40135246    -0.65500
O323        O  0.21610677  0.57976209  0.45188530    -0.84800
C324        C  0.36977260  0.78384258  0.42541946     0.87400
C325        C  0.40526165  0.73674745  0.36317314     1.09000
H326        H  0.30005810  0.67358062  0.44998245     0.40800
O327        O  0.29427000  0.65249947  0.43225116    -1.07500
O328        O  0.23984518  0.60704543  0.38193869    -0.64100
Ni329      Ni  0.26494986  0.67010168  0.40386889     1.26300
O330        O  0.36681539  0.74088383  0.42976286    -0.64400
O331        O  0.21777214  0.64652616  0.42912873    -0.76700
C332        C  0.25217666  0.73400621  0.36510707     0.86800
O333        O  0.23790970  0.68949399  0.37500129    -0.63800
Ni334      Ni  0.26849511  0.58341310  0.44609425     1.27400
Ni335      Ni  0.34283815  0.67725483  0.40801773     1.26100
H336        H  0.30702562  0.67181636  0.36216363     0.41300
C337        C  0.11790876  0.82838667  0.23711823     0.47700
H338        H  0.11784929  0.82835321  0.21188385    -0.01300
C339        C  0.11839670  0.82887566  0.29628437     0.47800
H340        H  0.11873590  0.82920906  0.32151813    -0.01300
C341        C  0.13774000  0.79982062  0.25113498    -0.15000
C342        C  0.14184661  0.88151801  0.25104955    -0.14800
C343        C  0.07498515  0.80454928  0.25137628    -0.15100
C344        C  0.13802104  0.80013716  0.28219321    -0.15100
C345        C  0.14207622  0.88178351  0.28207834    -0.14700
C346        C  0.07526389  0.80480801  0.28240026    -0.15000
O347        O  0.31798694  0.57805222  0.08972736    -0.78600
O348        O  0.23718923  0.68839740  0.15793161    -0.63300
O349        O  0.29430747  0.65181519  0.10103480    -1.09900
C350        C  0.40457729  0.73604108  0.17071032     1.08300
O351        O  0.28874482  0.76669835  0.16477589    -0.76500
O352        O  0.35748600  0.79486680  0.13180991    -0.64100
Ni353      Ni  0.26862163  0.58276551  0.08706516     1.34900
C354        C  0.36952764  0.78295741  0.10796234     0.87000
O355        O  0.21759252  0.64558678  0.10376741    -0.77100
O356        O  0.21619438  0.57897784  0.08107301    -0.87300
C357        C  0.25127921  0.73278992  0.16798525     0.86600
O358        O  0.25265375  0.55208528  0.12609998    -0.65500
O359        O  0.38812181  0.76221163  0.17797741    -0.84800
C360        C  0.23898016  0.56442824  0.14883351     0.87400
C361        C  0.20049662  0.60649861  0.08709164     1.09000
H362        H  0.30630819  0.67110893  0.17120862     0.40800
O363        O  0.31256943  0.69312963  0.15385834    -1.07500
O364        O  0.36697147  0.74014303  0.10390017    -0.64100
Ni365      Ni  0.34258754  0.67641816  0.12564469     1.26300
O366        O  0.23953824  0.60619193  0.15108418    -0.64400
O367        O  0.38970831  0.70050010  0.15129987    -0.76700
C368        C  0.35604050  0.61093558  0.08864057     0.86800
O369        O  0.37007995  0.65623704  0.09733407    -0.63800
Ni370      Ni  0.33734816  0.76089625  0.16959861     1.27400
Ni371      Ni  0.26461585  0.66926539  0.12920967     1.26100
H372        H  0.30034796  0.67305357  0.08329761     0.41300
O373        O  0.99218155  0.90122865  0.98106123    -0.78600
O374        O  0.41864397  0.51653713  0.05126032    -0.63300
O375        O  0.46924320  0.97572985  0.99109600    -1.09900
C376        C  0.08748553  0.56666141  0.05303021     1.08300
O377        O  0.47065194  0.59581338  0.05206026    -0.76500
O378        O  0.03759405  0.62230467  0.01744270    -0.64100
Ni379      Ni  0.44344383  0.90711061  0.97700282     1.34900
C380        C  0.04602115  0.60838966  0.99269532     0.87000
O381        O  0.39181954  0.96627766  0.99934891    -0.77100
O382        O  0.39230216  0.90594691  0.97030574    -0.87300
C383        C  0.43320147  0.56311639  0.05707095     0.86600
O384        O  0.42505646  0.87468936  0.01541486    -0.65500
O385        O  0.07085041  0.59163422  0.06250022    -0.84800
C386        C  0.41699106  0.88863051  0.04030374     0.87400
C387        C  0.37557126  0.93066806  0.98000152     1.09000
H388        H  0.49027216  0.50116634  0.05977272     0.40800
O389        O  0.49378884  0.52152531  0.04202315    -1.07500
O390        O  0.04141911  0.56460826  0.98832946    -0.64100
Ni391      Ni  0.02054840  0.50311399  0.01196419     1.26300
O392        O  0.42185071  0.93250434  0.04482762    -0.64400
O393        O  0.07109355  0.53069413  0.03392064    -0.76700
C394        C  0.02971956  0.93381289  0.97628334     0.86800
O395        O  0.04432376  0.98041444  0.98201920    -0.63800
Ni396      Ni  0.01954908  0.59020582  0.05595738     1.27400
Ni397      Ni  0.44244596  0.99399549  0.02122197     1.26100
H398        H  0.47280992  0.49621702  0.97338492     0.41300
O399        O  0.47085834  0.59680287  0.48099653    -0.78600
O400        O  0.04478502  0.98197025  0.55123024    -0.63300
O401        O  0.49399786  0.52247361  0.49104707    -1.09900
C402        C  0.37584059  0.93145660  0.55304690     1.08300
O403        O  0.49285150  0.90264506  0.55222003    -0.76500
O404        O  0.42591569  0.87593769  0.51757153    -0.64100
Ni405      Ni  0.01967133  0.59107784  0.47691719     1.34900
C406        C  0.41740101  0.88974402  0.49281843     0.87000
O407        O  0.07147930  0.53212703  0.49926212    -0.77100
O408        O  0.07087152  0.59239856  0.47021446    -0.87300
C409        C  0.03030390  0.93543315  0.55712714     0.86600
O410        O  0.03807179  0.62356926  0.51529518    -0.65500
O411        O  0.39251612  0.90653930  0.56253775    -0.84800
C412        C  0.04625791  0.60972280  0.54017232     0.87400
C413        C  0.08767468  0.56776014  0.47991524     1.09000
H414        H  0.47307199  0.99716165  0.55975529     0.40800
O415        O  0.46956207  0.97676929  0.54203249    -1.07500
O416        O  0.42190382  0.93346888  0.48840030    -0.64100
Ni417      Ni  0.44271777  0.99502169  0.51194923     1.26300
O418        O  0.04146662  0.56588589  0.54472523    -0.64400
O419        O  0.39220258  0.96741769  0.53392688    -0.76700
C420        C  0.43333521  0.56413056  0.47625433     0.86800
O421        O  0.41883929  0.51754731  0.48198783    -0.63800
Ni422      Ni  0.44388851  0.90812016  0.55605137     1.27400
Ni423      Ni  0.02089343  0.00436077  0.52117893     1.26100
H424        H  0.49045159  0.00198212  0.47335063     0.41300
C425        C  0.16088327  0.59213422  0.07460742    -0.11000
C426        C  0.12735809  0.58019942  0.06463142    -0.12600
C427        C  0.38700306  0.82031946  0.08424914    -0.11000
C428        C  0.40104116  0.85217018  0.06457218    -0.12600
C429        C  0.40632717  0.58022253  0.06848529    -0.11000
C430        C  0.38404361  0.59517739  0.07780585    -0.12600
C431        C  0.03823160  0.78595357  0.23325335    -0.16300
C432        C  0.00796535  0.77216547  0.21786834     0.07800
C433        C  0.47258666  0.75794223  0.20013700     0.09700
C434        C  0.44194648  0.74724062  0.18586463    -0.17100
C435        C  0.16442688  0.92588941  0.23244238    -0.16300
C436        C  0.18313586  0.96035357  0.21503708     0.07800
C437        C  0.20420880  0.49812597  0.19300053     0.09700
C438        C  0.22097268  0.52886040  0.17316194    -0.17100
C439        C  0.22396730  0.74526505  0.18345818    -0.16300
C440        C  0.20196924  0.75519869  0.19824675     0.07800
C441        C  0.17772216  0.76768161  0.21675015     0.09700
C442        C  0.15857095  0.78051165  0.23273549    -0.17100
C443        C  0.16471949  0.92649006  0.30047910    -0.16300
C444        C  0.18331482  0.96105614  0.31787506     0.07800
C445        C  0.20424995  0.99882246  0.33999021     0.09700
C446        C  0.22100818  0.52954799  0.35987065    -0.17100
C447        C  0.03886489  0.78647322  0.30085289    -0.16300
C448        C  0.00879656  0.77279392  0.31642141     0.07800
C449        C  0.47348023  0.75858005  0.33417734     0.09700
C450        C  0.44276020  0.74787876  0.34831122    -0.17100
C451        C  0.15929409  0.78140975  0.30051004    -0.16300
C452        C  0.17873359  0.76905076  0.31648651     0.07800
C453        C  0.20310196  0.75682537  0.33497424     0.09700
C454        C  0.22505334  0.74680015  0.34971409    -0.17100
C455        C  0.16100129  0.59323398  0.45827882    -0.11000
C456        C  0.12751367  0.58130683  0.46829571    -0.12600
C457        C  0.38717875  0.82130255  0.44903447    -0.11000
C458        C  0.40130702  0.85326676  0.46861087    -0.12600
C459        C  0.38388622  0.59608100  0.45607932    -0.11000
C460        C  0.40631070  0.58123663  0.46521913    -0.12600
C461        C  0.06211610  0.64479794  0.96842759    -0.11000
C462        C  0.07623016  0.67674489  0.94882258    -0.12600
C463        C  0.30229610  0.90539971  0.95832622    -0.11000
C464        C  0.33576047  0.91725678  0.96836877    -0.12600
C465        C  0.05663710  0.91657185  0.96520788    -0.11000
C466        C  0.07901712  0.90167030  0.95605495    -0.12600
C467        C  0.02077227  0.75040143  0.84798922    -0.16300
C468        C  0.49008338  0.73978071  0.83383248     0.07800
C469        C  0.45475241  0.72568701  0.81611396     0.09700
C470        C  0.42463474  0.71207613  0.80061166    -0.17100
C471        C  0.29860737  0.57220527  0.80060384    -0.16300
C472        C  0.27992047  0.53770086  0.81803085     0.07800
C473        C  0.25889229  0.49994334  0.84014356     0.09700
C474        C  0.24210631  0.96916765  0.86000297    -0.17100
C475        C  0.23866743  0.75214127  0.84965383    -0.16300
C476        C  0.26061323  0.74212791  0.83490118     0.07800
C477        C  0.28491621  0.72983035  0.81639411     0.09700
C478        C  0.30426623  0.71735423  0.80040802    -0.19300
C479        C  0.02118391  0.75124371  0.68550681    -0.16300
C480        C  0.49056141  0.74058148  0.69978759     0.07800
C481        C  0.45522840  0.72633121  0.71757273     0.09700
C482        C  0.42500915  0.71249414  0.73301781    -0.17100
C483        C  0.24255822  0.96941294  0.67329054    -0.16300
C484        C  0.25927047  0.50013201  0.69314754     0.07800
C485        C  0.28024025  0.53791720  0.71518331     0.09700
C486        C  0.29888231  0.57243489  0.73256072    -0.17100
C487        C  0.23896749  0.75265512  0.68342058    -0.16300
C488        C  0.26098280  0.74272125  0.69818351     0.07800
C489        C  0.28532605  0.73036492  0.71666091     0.09700
C490        C  0.30459772  0.71770492  0.73263639    -0.17100
C491        C  0.06227270  0.64625748  0.56438624    -0.11000
C492        C  0.07634518  0.67815934  0.58402199    -0.12600
C493        C  0.33596610  0.91789285  0.56464210    -0.11000
C494        C  0.30245598  0.90603507  0.57461109    -0.12600
C495        C  0.07963640  0.90363007  0.57782111    -0.11000
C496        C  0.05728139  0.91848670  0.56852535    -0.12600
O497        O  0.64561361  0.42067543  0.58999795    -0.78600
O498        O  0.72589620  0.30970362  0.65797560    -0.63300
O499        O  0.66915554  0.34671011  0.60102011    -1.09900
C500        C  0.55854577  0.26234700  0.67040610     1.08300
O501        O  0.67424074  0.23142005  0.66472267    -0.76500
O502        O  0.60564673  0.20346422  0.63164172    -0.64100
Ni503      Ni  0.69490508  0.41581085  0.58713712     1.34900
C504        C  0.59378442  0.21549024  0.60774617     0.87000
O505        O  0.74578885  0.35282282  0.60389054    -0.77100
O506        O  0.74721351  0.41934720  0.58100463    -0.87300
C507        C  0.71171824  0.26525632  0.66797028     0.86600
O508        O  0.71109756  0.44647593  0.62615627    -0.65500
O509        O  0.57492850  0.23611944  0.67773790    -0.84800
C510        C  0.72453818  0.43392372  0.64893926     0.87400
C511        C  0.76287611  0.39181019  0.58711386     1.09000
H512        H  0.65678458  0.32712787  0.67114424     0.40800
O513        O  0.65059316  0.30514923  0.65377269    -1.07500
O514        O  0.59646362  0.25837052  0.60365792    -0.64100
Ni515      Ni  0.62075602  0.32201205  0.62547851     1.26300
O516        O  0.72370734  0.39200265  0.65122497    -0.64400
O517        O  0.57350011  0.29788448  0.65098780    -0.76700
C518        C  0.60757753  0.38778405  0.58864137     0.86800
O519        O  0.59348844  0.34235291  0.59708500    -0.63800
Ni520      Ni  0.62567893  0.23732892  0.66945787     1.27400
Ni521      Ni  0.69866000  0.32906557  0.62923646     1.26100
H522        H  0.66320565  0.32558271  0.58327186     0.41300
C523        C  0.84534214  0.16995741  0.73704463     0.47700
H524        H  0.84531519  0.16987329  0.71181007    -0.01300
C525        C  0.84506491  0.16976275  0.79621185     0.47800
H526        H  0.84481142  0.16955025  0.82144624    -0.01300
C527        C  0.82145435  0.11689445  0.75108302    -0.15000
C528        C  0.88831202  0.19387229  0.75121730    -0.14800
C529        C  0.82555598  0.19858110  0.75103822    -0.15100
C530        C  0.82130706  0.11678656  0.78211333    -0.15100
C531        C  0.88815069  0.19374050  0.78224086    -0.14700
C532        C  0.82541175  0.19845577  0.78209636    -0.15000
O533        O  0.67403437  0.23096270  0.86842953    -0.78600
O534        O  0.59312164  0.34074079  0.93661551    -0.63300
O535        O  0.65028434  0.30454539  0.87940708    -1.09900
C536        C  0.76272811  0.39113466  0.94582158     1.08300
O537        O  0.64505616  0.41918666  0.94369496    -0.76500
O538        O  0.71039969  0.44562825  0.90711942    -0.64100
Ni539      Ni  0.62552829  0.23688452  0.86351293     1.34900
C540        C  0.72404202  0.43341622  0.88429866     0.87000
O541        O  0.57294820  0.29656517  0.88265913    -0.77100
O542        O  0.57485976  0.23578553  0.85516652    -0.87300
C543        C  0.60707649  0.38608986  0.94515016     0.86600
O544        O  0.60516144  0.20242611  0.90112937    -0.65500
O545        O  0.74703971  0.41862549  0.95196441    -0.84800
C546        C  0.59362230  0.21430281  0.92523348     0.87400
C547        C  0.55820971  0.26151511  0.86293358     1.09000
H548        H  0.66322006  0.32460348  0.94992531     0.40800
O549        O  0.66898077  0.34577067  0.93221043    -1.07500
O550        O  0.72340889  0.39161097  0.88193680    -0.64100
Ni551      Ni  0.69846167  0.32847018  0.90379666     1.26300
O552        O  0.59656534  0.25723386  0.92964793    -0.64400
O553        O  0.74564774  0.35215321  0.92905237    -0.76700
C554        C  0.71146945  0.26481573  0.86504691     0.86800
O555        O  0.72563260  0.30933575  0.87488661    -0.63800
Ni556      Ni  0.69457121  0.41476961  0.94615916     1.27400
Ni557      Ni  0.62041885  0.32091540  0.90795178     1.26100
H558        H  0.65634322  0.32667324  0.86212082     0.41300
O559        O  0.78966363  0.26775622  0.36840597    -0.78600
O560        O  0.86997296  0.15718466  0.43667665    -0.63300
O561        O  0.81313770  0.19391028  0.37947506    -1.09900
C562        C  0.70056909  0.10744018  0.44581315     1.08300
O563        O  0.81791893  0.07877457  0.44362774    -0.76500
O564        O  0.75267998  0.05276897  0.40700536    -0.64100
Ni565      Ni  0.83810874  0.26166086  0.36365882     1.34900
C566        C  0.73910539  0.06516217  0.38421911     0.87000
O567        O  0.89033966  0.20149833  0.38277083    -0.77100
O568        O  0.88877771  0.26268536  0.35546818    -0.87300
C569        C  0.85591459  0.11178617  0.44515684     0.86600
O570        O  0.85826144  0.29585032  0.40135189    -0.65500
O571        O  0.71611638  0.07977163  0.45188982    -0.84800
C572        C  0.86977619  0.28384372  0.42541999     0.87400
C573        C  0.90527220  0.23675333  0.36317452     1.09000
H574        H  0.80006034  0.17358063  0.44997732     0.40800
O575        O  0.79427443  0.15249982  0.43224677    -1.07500
O576        O  0.73985470  0.10704637  0.38193161    -0.64100
Ni577      Ni  0.76495599  0.17010147  0.40386281     1.26300
O578        O  0.86681890  0.24088490  0.42976332    -0.64400
O579        O  0.71777530  0.14652317  0.42912025    -0.76700
C580        C  0.75218615  0.23400782  0.36510067     0.86800
O581        O  0.73791842  0.18949456  0.37499342    -0.63800
Ni582      Ni  0.76850091  0.08341517  0.44609200     1.27400
Ni583      Ni  0.84284514  0.17725756  0.40801635     1.26100
H584        H  0.80703691  0.17182031  0.36216005     0.41300
C585        C  0.61791735  0.32839673  0.23711834     0.47700
H586        H  0.61785654  0.32836272  0.21188396    -0.01300
C587        C  0.61840836  0.32888682  0.29628452     0.47800
H588        H  0.61874891  0.32922074  0.32151827    -0.01300
C589        C  0.63774895  0.29983069  0.25113429    -0.15000
C590        C  0.64185569  0.38152820  0.25104923    -0.14800
C591        C  0.57499466  0.30456001  0.25137777    -0.15100
C592        C  0.63803188  0.30014809  0.28219240    -0.15100
C593        C  0.64208662  0.38179414  0.28207794    -0.14700
C594        C  0.57527493  0.30481921  0.28240173    -0.15000
O595        O  0.81799840  0.07805340  0.08974035    -0.78600
O596        O  0.73719648  0.18839447  0.15793916    -0.63300
O597        O  0.79431541  0.15181546  0.10104140    -1.09900
C598        C  0.90458846  0.23605268  0.17071118     1.08300
O599        O  0.78874962  0.26669814  0.16478081    -0.76500
O600        O  0.85748578  0.29486722  0.13180855    -0.64100
Ni601      Ni  0.76863342  0.08276713  0.08707028     1.34900
C602        C  0.86952806  0.28295687  0.10796170     0.87000
O603        O  0.71759747  0.14557887  0.10377614    -0.77100
O604        O  0.71620866  0.07898284  0.08107076    -0.87300
C605        C  0.75128480  0.23278769  0.16799116     0.86600
O606        O  0.75265397  0.05207961  0.12610273    -0.65500
O607        O  0.88813344  0.26222477  0.17797576    -0.84800
C608        C  0.73898537  0.06442435  0.14883853     0.87400
C609        C  0.70050698  0.10649793  0.08709396     1.09000
H610        H  0.80631978  0.17111427  0.17121586     0.40800
O611        O  0.81257890  0.19313368  0.15386365    -1.07500
O612        O  0.86697728  0.24014488  0.10390271    -0.64100
Ni613      Ni  0.84259669  0.17642232  0.12564970     1.26300
O614        O  0.73955051  0.10619184  0.15109276    -0.64400
O615        O  0.88971844  0.20050771  0.15130349    -0.76700
C616        C  0.85605120  0.11093925  0.08864907     0.86800
O617        O  0.87008883  0.15624211  0.09733862    -0.63800
Ni618      Ni  0.83735636  0.26090254  0.16960006     1.27400
Ni619      Ni  0.76462319  0.16926340  0.12921688     1.26100
H620        H  0.80035377  0.17305236  0.08330547     0.41300
O621        O  0.49217843  0.40122430  0.98105845    -0.78600
O622        O  0.91865837  0.01654783  0.05126859    -0.63300
O623        O  0.96923686  0.47572331  0.99109147    -1.09900
C624        C  0.58749841  0.06666788  0.05302939     1.08300
O625        O  0.97066649  0.09582386  0.05206530    -0.76500
O626        O  0.53760658  0.12231236  0.01744578    -0.64100
Ni627      Ni  0.94343996  0.40710432  0.97699761     1.34900
C628        C  0.54602803  0.10839539  0.99269681     0.87000
O629        O  0.89181137  0.46626775  0.99933968    -0.77100
O630        O  0.89229804  0.40593844  0.97029764    -0.87300
C631        C  0.93321636  0.06312738  0.05707805     0.86600
O632        O  0.92504993  0.37468159  0.01540924    -0.65500
O633        O  0.57086375  0.09163984  0.06250198    -0.84800
C634        C  0.91698169  0.38862160  0.04029747     0.87400
C635        C  0.87556531  0.43065813  0.97999216     1.09000
H636        H  0.99028611  0.00117455  0.05977616     0.40800
O637        O  0.99380125  0.02153372  0.04202650    -1.07500
O638        O  0.54142408  0.06461339  0.98832978    -0.64100
Ni639      Ni  0.52055724  0.00312083  0.01196536     1.26300
O640        O  0.92183918  0.43249458  0.04482067    -0.64400
O641        O  0.57110562  0.03070283  0.03391829    -0.76700
C642        C  0.52971653  0.43381012  0.97628251     0.86800
O643        O  0.54431918  0.48041069  0.98201997    -0.63800
Ni644      Ni  0.51956317  0.09021423  0.05596074     1.27400
Ni645      Ni  0.94243561  0.49398659  0.02121551     1.26100
H646        H  0.97281416  0.99622209  0.97338999     0.41300
O647        O  0.97086374  0.09680735  0.48099569    -0.78600
O648        O  0.54477966  0.48196768  0.55123128    -0.63300
O649        O  0.99400727  0.02248142  0.49104539    -1.09900
C650        C  0.87583377  0.43145480  0.55305130     1.08300
O651        O  0.99284557  0.40264292  0.55222880    -0.76500
O652        O  0.92591413  0.37593629  0.51757494    -0.64100
Ni653      Ni  0.51967939  0.09108684  0.47691836     1.34900
C654        C  0.91739480  0.38974056  0.49282292     0.87000
O655        O  0.57148915  0.03213745  0.49926333    -0.77100
O656        O  0.57088169  0.09241134  0.47021765    -0.87300
C657        C  0.53029871  0.43543210  0.55713232     0.86600
O658        O  0.53807444  0.12357356  0.51529809    -0.65500
O659        O  0.89250772  0.40653408  0.56253923    -0.84800
C660        C  0.54625989  0.10972576  0.54017501     0.87400
C661        C  0.58768508  0.06777267  0.47991777     1.09000
H662        H  0.97306809  0.49716023  0.55975905     0.40800
O663        O  0.96955610  0.47676646  0.54203621    -1.07500
O664        O  0.92189207  0.43346317  0.48840631    -0.64100
Ni665      Ni  0.94271053  0.49501875  0.51195366     1.26300
O666        O  0.54147115  0.06588967  0.54472649    -0.64400
O667        O  0.89219759  0.46741973  0.53393393    -0.76700
C668        C  0.93334163  0.06413333  0.47625081     0.86800
O669        O  0.91884750  0.01754993  0.48198259    -0.63800
Ni670      Ni  0.94388173  0.40811730  0.55605579     1.27400
Ni671      Ni  0.52088560  0.50435449  0.52118004     1.26100
H672        H  0.99043968  0.50197178  0.47335288     0.41300
C673        C  0.66089517  0.09213570  0.07460719    -0.11000
C674        C  0.62737092  0.08020348  0.06463006    -0.12600
C675        C  0.88699782  0.32031454  0.08424557    -0.11000
C676        C  0.90103248  0.35216194  0.06456648    -0.12600
C677        C  0.90634221  0.08023315  0.06849327    -0.11000
C678        C  0.88405598  0.09518368  0.07781430    -0.12600
C679        C  0.53824064  0.28596545  0.23325593    -0.16300
C680        C  0.50797464  0.27217837  0.21787102     0.07800
C681        C  0.97259700  0.25795576  0.20013895     0.09700
C682        C  0.94195766  0.24725419  0.18586572    -0.17100
C683        C  0.66443331  0.42589960  0.23244177    -0.16300
C684        C  0.68313971  0.46036345  0.21503590     0.07800
C685        C  0.70420845  0.99811751  0.19300294     0.09700
C686        C  0.72097518  0.02885383  0.17316560    -0.17100
C687        C  0.72397163  0.24526191  0.18346284    -0.16300
C688        C  0.70197325  0.25519736  0.19824953     0.07800
C689        C  0.67772677  0.26768447  0.21675047     0.09700
C690        C  0.65857710  0.28051857  0.23273442    -0.17100
C691        C  0.66472781  0.42650112  0.30047818    -0.16300
C692        C  0.68332084  0.46106700  0.31787440     0.07800
C693        C  0.70425343  0.49883170  0.33999047     0.09700
C694        C  0.72100634  0.02954101  0.35986929    -0.17100
C695        C  0.53887699  0.28648531  0.30085538    -0.16300
C696        C  0.50880900  0.27280546  0.31642433     0.07800
C697        C  0.97349250  0.25858946  0.33418030     0.09700
C698        C  0.94277177  0.24788597  0.34831380    -0.17100
C699        C  0.65930561  0.28142009  0.30050777    -0.16300
C700        C  0.67874589  0.26905912  0.31648181     0.07800
C701        C  0.70311421  0.25683050  0.33496712     0.09700
C702        C  0.72506453  0.24680296  0.34970644    -0.17100
C703        C  0.66101081  0.09324458  0.45827999    -0.11000
C704        C  0.62752431  0.08132015  0.46829818    -0.12600
C705        C  0.88717817  0.32130188  0.44903661    -0.11000
C706        C  0.90130299  0.35326413  0.46861449    -0.12600
C707        C  0.88388943  0.09607865  0.45607478    -0.11000
C708        C  0.90631568  0.08123692  0.46521482    -0.12600
C709        C  0.56211759  0.14480170  0.96842820    -0.11000
C710        C  0.57622664  0.17674623  0.94882184    -0.12600
C711        C  0.80228991  0.40538738  0.95831652    -0.11000
C712        C  0.83575462  0.41724461  0.96835834    -0.12600
C713        C  0.55663608  0.41657238  0.96520714    -0.11000
C714        C  0.57901742  0.40167335  0.95605370    -0.12600
C715        C  0.52075739  0.25040016  0.84799333    -0.16300
C716        C  0.99006799  0.23977825  0.83383713     0.07800
C717        C  0.95473771  0.22568222  0.81611761     0.09700
C718        C  0.92462110  0.21206912  0.80061393    -0.17100
C719        C  0.79859878  0.07219230  0.80060064    -0.16300
C720        C  0.77991410  0.03769012  0.81802919     0.07800
C721        C  0.75888959  0.99993772  0.84014489     0.09700
C722        C  0.74210590  0.46916898  0.85999932    -0.17100
C723        C  0.73864945  0.25212747  0.84964729    -0.16300
C724        C  0.76059493  0.24211155  0.83489640     0.07800
C725        C  0.78489862  0.22981270  0.81639137     0.09700
C726        C  0.80424990  0.21733697  0.80040657    -0.19300
C727        C  0.52117521  0.25124124  0.68551023    -0.16300
C728        C  0.99055237  0.24057794  0.69979059     0.07800
C729        C  0.95521931  0.22632649  0.71757545     0.09700
C730        C  0.92499977  0.21248845  0.73302008    -0.17100
C731        C  0.74255534  0.46941610  0.67329844    -0.16300
C732        C  0.75927229  0.00012741  0.69314046     0.07800
C733        C  0.78023932  0.03791012  0.71517794     0.09700
C734        C  0.79887823  0.07242585  0.73255712    -0.17100
C735        C  0.73895638  0.25264795  0.68342389    -0.16300
C736        C  0.76097080  0.24271082  0.69818517     0.07800
C737        C  0.78531342  0.23035181  0.71666094     0.09700
C738        C  0.80458499  0.21769093  0.73263561    -0.17100
C739        C  0.56227091  0.14625830  0.56439021    -0.11000
C740        C  0.57634055  0.17815974  0.58402629    -0.12600
C741        C  0.83595912  0.41789052  0.56464688    -0.11000
C742        C  0.80244931  0.40603337  0.57461649    -0.12600
C743        C  0.57963332  0.40363379  0.57782837    -0.11000
C744        C  0.55727742  0.41848844  0.56853170    -0.12600
O745        O  0.64561782  0.92067174  0.58998544    -0.78600
O746        O  0.72590488  0.80970459  0.65796673    -0.63300
O747        O  0.66916007  0.84670768  0.60101237    -1.09900
C748        C  0.55855405  0.76234894  0.67040166     1.08300
O749        O  0.67425010  0.73142236  0.66472000    -0.76500
O750        O  0.60565779  0.70346625  0.63163561    -0.64100
Ni751      Ni  0.69491037  0.91580909  0.58712970     1.34900
C752        C  0.59379114  0.71549036  0.60774147     0.87000
O753        O  0.74579229  0.85281770  0.60387997    -0.77100
O754        O  0.74722114  0.91934972  0.58100165    -0.87300
C755        C  0.71172786  0.76525957  0.66796509     0.86600
O756        O  0.71109555  0.94647055  0.62615013    -0.65500
O757        O  0.57493531  0.73611862  0.67773091    -0.84800
C758        C  0.72454157  0.93392116  0.64893115     0.87400
C759        C  0.76288206  0.89180980  0.58710743     1.09000
H760        H  0.65679476  0.82713036  0.67113783     0.40800
O761        O  0.65060157  0.80515051  0.65376645    -1.07500
O762        O  0.59646712  0.75836914  0.60365441    -0.64100
Ni763      Ni  0.62076276  0.82201257  0.62547321     1.26300
O764        O  0.72371649  0.89200322  0.65121458    -0.64400
O765        O  0.57350959  0.79788884  0.65098501    -0.76700
C766        C  0.60758133  0.88778096  0.58863347     0.86800
O767        O  0.59349261  0.84235160  0.59708073    -0.63800
Ni768      Ni  0.62568725  0.73733027  0.66945238     1.27400
Ni769      Ni  0.69866615  0.82906393  0.62922799     1.26100
H770        H  0.66320835  0.82557898  0.58326373     0.41300
C771        C  0.84535142  0.66996668  0.73704536     0.47700
H772        H  0.84532270  0.66988074  0.71181080    -0.01300
C773        C  0.84507816  0.66977591  0.79621259     0.47800
H774        H  0.84482638  0.66956513  0.82144697    -0.01300
C775        C  0.82146214  0.61690468  0.75108521    -0.15000
C776        C  0.88832234  0.69387983  0.75121638    -0.14800
C777        C  0.82556848  0.69859424  0.75103904    -0.15100
C778        C  0.82131693  0.61679873  0.78211556    -0.15100
C779        C  0.88816305  0.69374977  0.78223999    -0.14700
C780        C  0.82542623  0.69847083  0.78209727    -0.15000
O781        O  0.67405132  0.73097105  0.86843740    -0.78600
O782        O  0.59312471  0.84074052  0.93661544    -0.63300
O783        O  0.65029670  0.80455017  0.87941191    -1.09900
C784        C  0.76273466  0.89114445  0.94582946     1.08300
O785        O  0.64505745  0.91918606  0.94370061    -0.76500
O786        O  0.71039795  0.94562808  0.90712223    -0.64100
Ni787      Ni  0.62554432  0.73689015  0.86351697     1.34900
C788        C  0.72404542  0.93341802  0.88430372     0.87000
O789        O  0.57295870  0.79656578  0.88265838    -0.77100
O790        O  0.57487566  0.73578904  0.85516640    -0.87300
C791        C  0.60707777  0.88608836  0.94515227     0.86600
O792        O  0.60517310  0.70242945  0.90113244    -0.65500
O793        O  0.74704585  0.91863632  0.95196786    -0.84800
C794        C  0.59363021  0.71430410  0.92523554     0.87400
C795        C  0.55822342  0.76151688  0.86293198     1.09000
H796        H  0.66322470  0.82460759  0.94993074     0.40800
O797        O  0.66898649  0.84577412  0.93221590    -1.07500
O798        O  0.72341950  0.89161682  0.88194512    -0.64100
Ni799      Ni  0.69847156  0.82847585  0.90380437     1.26300
O800        O  0.59657228  0.75723481  0.92964976    -0.64400
O801        O  0.74565482  0.85215960  0.92906306    -0.76700
C802        C  0.71148593  0.76482589  0.86505496     0.86800
O803        O  0.72564711  0.80934482  0.87489603    -0.63800
Ni804      Ni  0.69457466  0.91477392  0.94616333     1.27400
Ni805      Ni  0.62042676  0.82091741  0.90795414     1.26100
H806        H  0.65635706  0.82667890  0.86212534     0.41300
O807        O  0.78965493  0.76775420  0.36840891    -0.78600
O808        O  0.86996906  0.65718369  0.43667639    -0.63300
O809        O  0.81312854  0.69390726  0.37947814    -1.09900
C810        C  0.70056165  0.60743477  0.44581427     1.08300
O811        O  0.81791490  0.57877634  0.44363749    -0.76500
O812        O  0.75268665  0.55277567  0.40700487    -0.64100
Ni813      Ni  0.83809917  0.76165702  0.36366034     1.34900
C814        C  0.73910496  0.56516625  0.38422174     0.87000
O815        O  0.89032969  0.70149251  0.38276946    -0.77100
O816        O  0.88876746  0.76268035  0.35546797    -0.87300
C817        C  0.85591093  0.61178749  0.44516128     0.86600
O818        O  0.85825472  0.79584790  0.40135246    -0.65500
O819        O  0.71610676  0.57976210  0.45188529    -0.84800
C820        C  0.86977260  0.78384259  0.42541946     0.87400
C821        C  0.90526166  0.73674744  0.36317315     1.09000
H822        H  0.80005808  0.67358054  0.44998238     0.40800
O823        O  0.79426996  0.65249948  0.43225116    -1.07500
O824        O  0.73984498  0.60704541  0.38193870    -0.64100
Ni825      Ni  0.76494980  0.67010169  0.40386888     1.26300
O826        O  0.86681540  0.74088384  0.42976286    -0.64400
O827        O  0.71777210  0.64652618  0.42912873    -0.76700
C828        C  0.75217665  0.73400622  0.36510702     0.86800
O829        O  0.73790966  0.68949403  0.37500130    -0.63800
Ni830      Ni  0.76849511  0.58341313  0.44609425     1.27400
Ni831      Ni  0.84283812  0.67725482  0.40801772     1.26100
H832        H  0.80702556  0.67181632  0.36216364     0.41300
C833        C  0.61790876  0.82838667  0.23711823     0.47700
H834        H  0.61784931  0.82835321  0.21188385    -0.01300
C835        C  0.61839668  0.82887566  0.29628438     0.47800
H836        H  0.61873588  0.82920906  0.32151813    -0.01300
C837        C  0.63774001  0.79982065  0.25113499    -0.15000
C838        C  0.64184657  0.88151802  0.25104955    -0.14800
C839        C  0.57498514  0.80454926  0.25137628    -0.15100
C840        C  0.63802106  0.80013720  0.28219322    -0.15100
C841        C  0.64207614  0.88178352  0.28207835    -0.14700
C842        C  0.57526387  0.80480797  0.28240026    -0.15000
O843        O  0.81798695  0.57805223  0.08972735    -0.78600
O844        O  0.73718923  0.68839741  0.15793162    -0.63300
O845        O  0.79430747  0.65181519  0.10103480    -1.09900
C846        C  0.90457730  0.73604108  0.17071033     1.08300
O847        O  0.78874483  0.76669836  0.16477589    -0.76500
O848        O  0.85748601  0.79486679  0.13180991    -0.64100
Ni849      Ni  0.76862163  0.58276552  0.08706516     1.34900
C850        C  0.86952765  0.78295741  0.10796234     0.87000
O851        O  0.71759246  0.64558677  0.10376743    -0.77100
O852        O  0.71619439  0.57897788  0.08107302    -0.87300
C853        C  0.75127922  0.73278992  0.16798526     0.86600
O854        O  0.75265376  0.55208528  0.12609998    -0.65500
O855        O  0.88812182  0.76221164  0.17797741    -0.84800
C856        C  0.73898017  0.56442824  0.14883351     0.87400
C857        C  0.70049659  0.60649862  0.08709164     1.09000
H858        H  0.80630819  0.67110894  0.17120862     0.40800
O859        O  0.81256943  0.69312964  0.15385833    -1.07500
O860        O  0.86697148  0.74014302  0.10390018    -0.64100
Ni861      Ni  0.84258755  0.67641816  0.12564472     1.26300
O862        O  0.73953824  0.60619193  0.15108418    -0.64400
O863        O  0.88970831  0.70050010  0.15129989    -0.76700
C864        C  0.85604052  0.61093558  0.08864061     0.86800
O865        O  0.87007999  0.65623700  0.09733418    -0.63800
Ni866      Ni  0.83734817  0.76089625  0.16959861     1.27400
Ni867      Ni  0.76461583  0.66926539  0.12920967     1.26100
H868        H  0.80034797  0.67305356  0.08329761     0.41300
O869        O  0.49218160  0.90122864  0.98106120    -0.78600
O870        O  0.91864398  0.51653714  0.05126033    -0.63300
O871        O  0.96924318  0.97572986  0.99109602    -1.09900
C872        C  0.58748553  0.56666140  0.05303021     1.08300
O873        O  0.97065195  0.59581338  0.05206026    -0.76500
O874        O  0.53759406  0.62230467  0.01744270    -0.64100
Ni875      Ni  0.94344377  0.90711060  0.97700289     1.34900
C876        C  0.54602117  0.60838966  0.99269532     0.87000
O877        O  0.89181954  0.96627769  0.99934892    -0.77100
O878        O  0.89230210  0.90594687  0.97030580    -0.87300
C879        C  0.93320147  0.56311640  0.05707096     0.86600
O880        O  0.92505642  0.87468932  0.01541491    -0.65500
O881        O  0.57085042  0.59163422  0.06250022    -0.84800
C882        C  0.91699105  0.88863051  0.04030378     0.87400
C883        C  0.87557124  0.93066808  0.98000153     1.09000
H884        H  0.99027216  0.50116634  0.05977272     0.40800
O885        O  0.99378884  0.52152531  0.04202315    -1.07500
O886        O  0.54141912  0.56460826  0.98832946    -0.64100
Ni887      Ni  0.52054841  0.50311400  0.01196419     1.26300
O888        O  0.92185071  0.93250435  0.04482764    -0.64400
O889        O  0.57109355  0.53069413  0.03392064    -0.76700
C890        C  0.52971961  0.93381290  0.97628334     0.86800
O891        O  0.54432378  0.98041444  0.98201920    -0.63800
Ni892      Ni  0.51954908  0.59020582  0.05595738     1.27400
Ni893      Ni  0.94244596  0.99399550  0.02122198     1.26100
H894        H  0.97280991  0.49621703  0.97338492     0.41300
O895        O  0.97085834  0.59680288  0.48099652    -0.78600
O896        O  0.54478503  0.98197025  0.55123024    -0.63300
O897        O  0.99399787  0.52247361  0.49104706    -1.09900
C898        C  0.87584057  0.93145661  0.55304689     1.08300
O899        O  0.99285150  0.90264505  0.55222003    -0.76500
O900        O  0.92591570  0.87593769  0.51757153    -0.64100
Ni901      Ni  0.51967131  0.59107783  0.47691720     1.34900
C902        C  0.91740102  0.88974402  0.49281843     0.87000
O903        O  0.57147931  0.53212705  0.49926211    -0.77100
O904        O  0.57087148  0.59239854  0.47021445    -0.87300
C905        C  0.53030391  0.93543315  0.55712714     0.86600
O906        O  0.53807180  0.62356926  0.51529518    -0.65500
O907        O  0.89251612  0.90653934  0.56253774    -0.84800
C908        C  0.54625792  0.60972280  0.54017232     0.87400
C909        C  0.58767466  0.56776015  0.47991522     1.09000
H910        H  0.97307199  0.99716165  0.55975530     0.40800
O911        O  0.96956206  0.97676928  0.54203250    -1.07500
O912        O  0.92190383  0.93346888  0.48840030    -0.64100
Ni913      Ni  0.94271775  0.99502169  0.51194923     1.26300
O914        O  0.54146662  0.56588589  0.54472523    -0.64400
O915        O  0.89220252  0.96741768  0.53392686    -0.76700
C916        C  0.93333520  0.56413056  0.47625432     0.86800
O917        O  0.91883929  0.51754731  0.48198783    -0.63800
Ni918      Ni  0.94388851  0.90812017  0.55605137     1.27400
Ni919      Ni  0.52089344  0.00436077  0.52117893     1.26100
H920        H  0.99045160  0.00198212  0.47335064     0.41300
C921        C  0.66088326  0.59213419  0.07460740    -0.11000
C922        C  0.62735808  0.58019940  0.06463141    -0.12600
C923        C  0.88700307  0.82031945  0.08424915    -0.11000
C924        C  0.90104117  0.85217019  0.06457220    -0.12600
C925        C  0.90632718  0.58022254  0.06848529    -0.11000
C926        C  0.88404363  0.59517741  0.07780586    -0.12600
C927        C  0.53823160  0.78595356  0.23325335    -0.16300
C928        C  0.50796535  0.77216547  0.21786834     0.07800
C929        C  0.97258667  0.75794223  0.20013700     0.09700
C930        C  0.94194649  0.74724062  0.18586463    -0.17100
C931        C  0.66442689  0.92588941  0.23244238    -0.16300
C932        C  0.68313588  0.96035357  0.21503708     0.07800
C933        C  0.70420882  0.49812597  0.19300053     0.09700
C934        C  0.72097269  0.52886040  0.17316194    -0.17100
C935        C  0.72396730  0.74526506  0.18345819    -0.16300
C936        C  0.70196921  0.75519869  0.19824674     0.07800
C937        C  0.67772207  0.76768157  0.21675011     0.09700
C938        C  0.65857091  0.78051164  0.23273549    -0.17100
C939        C  0.66471947  0.92649005  0.30047909    -0.16300
C940        C  0.68331484  0.96105612  0.31787505     0.07800
C941        C  0.70424990  0.99882246  0.33999021     0.09700
C942        C  0.72100820  0.52954801  0.35987065    -0.17100
C943        C  0.53886489  0.78647321  0.30085289    -0.16300
C944        C  0.50879656  0.77279391  0.31642142     0.07800
C945        C  0.97348024  0.75858005  0.33417734     0.09700
C946        C  0.94276021  0.74787876  0.34831122    -0.17100
C947        C  0.65929409  0.78140976  0.30051004    -0.16300
C948        C  0.67873360  0.76905076  0.31648651     0.07800
C949        C  0.70310196  0.75682537  0.33497423     0.09700
C950        C  0.72505333  0.74680015  0.34971408    -0.17100
C951        C  0.66100122  0.59323392  0.45827872    -0.11000
C952        C  0.62751363  0.58130685  0.46829566    -0.12600
C953        C  0.88717876  0.82130255  0.44903447    -0.11000
C954        C  0.90130703  0.85326676  0.46861087    -0.12600
C955        C  0.88388616  0.59608097  0.45607935    -0.11000
C956        C  0.90631068  0.58123662  0.46521914    -0.12600
C957        C  0.56211612  0.64479794  0.96842759    -0.11000
C958        C  0.57623016  0.67674490  0.94882258    -0.12600
C959        C  0.80229611  0.90539971  0.95832622    -0.11000
C960        C  0.83576047  0.91725679  0.96836877    -0.12600
C961        C  0.55663714  0.91657186  0.96520787    -0.11000
C962        C  0.57901713  0.90167030  0.95605491    -0.12600
C963        C  0.52077228  0.75040143  0.84798923    -0.16300
C964        C  0.99008335  0.73978070  0.83383246     0.07800
C965        C  0.95475238  0.72568702  0.81611396     0.09700
C966        C  0.92463469  0.71207618  0.80061169    -0.17100
C967        C  0.79860732  0.57220528  0.80060384    -0.16300
C968        C  0.77992033  0.53770087  0.81803084     0.07800
C969        C  0.75889224  0.49994334  0.84014356     0.09700
C970        C  0.74210632  0.96916765  0.86000297    -0.17100
C971        C  0.73866744  0.75214127  0.84965383    -0.16300
C972        C  0.76061324  0.74212791  0.83490118     0.07800
C973        C  0.78491622  0.72983036  0.81639411     0.09700
C974        C  0.80426624  0.71735423  0.80040802    -0.19300
C975        C  0.52118391  0.75124371  0.68550681    -0.16300
C976        C  0.99056142  0.74058148  0.69978760     0.07800
C977        C  0.95522841  0.72633121  0.71757274     0.09700
C978        C  0.92500916  0.71249414  0.73301782    -0.17100
C979        C  0.74255824  0.96941294  0.67329054    -0.16300
C980        C  0.75927048  0.50013201  0.69314754     0.07800
C981        C  0.78024026  0.53791720  0.71518331     0.09700
C982        C  0.79888232  0.57243488  0.73256072    -0.17100
C983        C  0.73896750  0.75265512  0.68342058    -0.16300
C984        C  0.76098281  0.74272125  0.69818351     0.07800
C985        C  0.78532606  0.73036492  0.71666091     0.09700
C986        C  0.80459774  0.71770492  0.73263639    -0.17100
C987        C  0.56227271  0.64625748  0.56438624    -0.11000
C988        C  0.57634520  0.67815934  0.58402199    -0.12600
C989        C  0.83596609  0.91789282  0.56464211    -0.11000
C990        C  0.80245598  0.90603506  0.57461109    -0.12600
C991        C  0.57963641  0.90363007  0.57782111    -0.11000
C992        C  0.55728139  0.91848670  0.56852535    -0.12600
loop_ 
_geom_bond_atom_site_label_1 
_geom_bond_atom_site_label_2 
_geom_bond_distance 
_geom_bond_site_symmetry_2 
_ccdc_geom_bond_type 
O1           Ni7   1.935       .  S
O1           C22   1.270       .  A
O2          Ni25   1.899       .  S
O2           C11   1.262       .  A
O3           Ni7   1.927       .  S
O3          Ni25   1.914       .  S
O3          Ni19   1.913       .  S
O3           H26   0.966       .  S
C4           O21   1.270       .  A
C4           O13   1.272       .  A
C4          C231   1.432       .  S
O5          Ni24   1.932       .  S
O5           C11   1.269       .  A
O6          Ni24   1.906       .  S
O6            C8   1.267       .  A
Ni7          O10   1.932       .  S
Ni7          O12   1.906       .  S
C8           O18   1.274       .  A
C8          C244   1.440       .  S
O9          Ni25   1.903       .  S
O9           C15   1.268       .  A
O10          C15   1.273       .  A
C11         C239   1.433       .  S
O12          C14   1.266       .  A
O13         Ni24   1.923       .  S
C14          O20   1.268       .  A
C14         C235   1.432       .  S
C15         C246   1.433       .  S
H16          O17   0.967       .  S
O17         Ni25   1.908       .  S
O17         Ni19   1.912       .  S
O17         Ni24   1.922       .  S
O18         Ni19   1.938       .  S
Ni19         O23   1.907       .  S
Ni19         O21   1.909       .  S
O20         Ni25   1.924       .  S
C22          O23   1.267       .  A
C22         C247   1.440       .  S
C27          H28   1.112       .  S
C27          C33   1.532       .  S
C27          C32   1.532       .  S
C27          C31   1.534       .  S
C29          H30   1.112       .  S
C29          C35   1.532       .  S
C29          C34   1.533       .  S
C29          C36   1.532       .  S
C31          C34   1.368       .  D
C31         C238   1.440       .  S
C32          C35   1.367       .  D
C32         C234   1.442       .  S
C33          C36   1.369       .  D
C33         C242   1.442       .  S
C34         C223   1.442       .  S
C35         C222   1.441       .  S
C36         C230   1.441       .  S
O37         Ni43   1.931       .  S
O37          C58   1.269       .  A
O38         Ni61   1.907       .  S
O38          C47   1.267       .  A
O39         Ni43   1.922       .  S
O39         Ni61   1.911       .  S
O39         Ni55   1.908       .  S
O39          H62   0.966       .  S
C40          O57   1.268       .  A
C40          O49   1.273       .  A
C40         C215   1.433       .  S
O41         Ni60   1.934       .  S
O41          C47   1.271       .  A
O42         Ni60   1.908       .  S
O42          C44   1.267       .  A
Ni43         O46   1.922       .  S
Ni43         O48   1.906       .  S
C44          O54   1.269       .  A
C44         C226   1.434       .  S
O45         Ni61   1.909       .  S
O45          C51   1.270       .  A
O46          C51   1.272       .  A
C47         C218   1.439       .  S
O48          C50   1.267       .  A
O49         Ni60   1.932       .  S
C50          O56   1.274       .  A
C50         C214   1.439       .  S
C51         C219   1.432       .  S
H52          O53   0.966       .  S
O53         Ni61   1.913       .  S
O53         Ni55   1.913       .  S
O53         Ni60   1.925       .  S
O54         Ni55   1.926       .  S
Ni55         O59   1.899       .  S
Ni55         O57   1.902       .  S
O56         Ni61   1.936       .  S
C58          O59   1.262       .  A
C58         C227   1.432       .  S
O63         Ni69   1.931       .  S
O63          C84   1.269       .  A
O64         Ni87   1.907       .  S
O64          C73   1.267       .  A
O65         Ni69   1.922       .  S
O65         Ni87   1.912       .  S
O65         Ni81   1.908       .  S
O65          H88   0.967       .  S
C66          O83   1.268       .  A
C66          O75   1.273       .  A
C66         C207   1.432       .  S
O67         Ni86   1.934       .  S
O67          C73   1.271       .  A
O68         Ni86   1.908       .  S
O68          C70   1.267       .  A
Ni69         O72   1.922       .  S
Ni69         O74   1.905       .  S
C70          O80   1.269       .  A
C70         C198   1.434       .  S
O71         Ni87   1.909       .  S
O71          C77   1.270       .  A
O72          C77   1.272       .  A
C73         C211   1.439       .  S
O74          C76   1.267       .  A
O75         Ni86   1.931       .  S
C76          O82   1.274       .  A
C76         C209   1.438       .  S
C77         C202   1.431       .  S
H78          O79   0.965       .  S
O79         Ni87   1.912       .  S
O79         Ni81   1.913       .  S
O79         Ni86   1.926       .  S
O80         Ni81   1.926       .  S
Ni81         O85   1.898       .  S
Ni81         O83   1.902       .  S
O82         Ni87   1.936       .  S
C84          O85   1.262       .  A
C84         C206   1.432       .  S
C89          H90   1.112       .  S
C89          C95   1.532       .  S
C89          C94   1.534       .  S
C89          C93   1.532       .  S
C91          H92   1.112       .  S
C91          C97   1.533       .  S
C91          C96   1.532       .  S
C91          C98   1.532       .  S
C93          C96   1.369       .  D
C93         C194   1.442       .  S
C94          C97   1.368       .  D
C94         C187   1.440       .  S
C95          C98   1.367       .  D
C95         C183   1.442       .  S
C96         C203   1.441       .  S
C97         C195   1.442       .  S
C98         C199   1.441       .  S
O99        Ni105   1.934       .  S
O99         C120   1.270       .  A
O100       Ni123   1.900       .  S
O100        C109   1.262       .  A
O101       Ni105   1.927       .  S
O101       Ni123   1.915       .  S
O101       Ni117   1.914       .  S
O101        H124   0.967       .  S
C102        O119   1.270       .  A
C102        O111   1.272       .  A
C102        C186   1.433       .  S
O103       Ni122   1.932       .  S
O103        C109   1.269       .  A
O104       Ni122   1.906       .  S
O104        C106   1.268       .  A
Ni105       O108   1.932       .  S
Ni105       O110   1.906       .  S
C106        O116   1.274       .  A
C106        C179   1.440       .  S
O107       Ni123   1.903       .  S
O107        C113   1.268       .  A
O108        C113   1.273       .  A
C109        C191   1.433       .  S
O110        C112   1.267       .  A
O111       Ni122   1.923       .  S
C112        O118   1.268       .  A
C112        C190   1.431       .  S
C113        C177   1.434       .  S
H114        O115   0.966       .  S
O115       Ni123   1.908       .  S
O115       Ni117   1.912       .  S
O115       Ni122   1.922       .  S
O116       Ni117   1.937       .  S
Ni117       O121   1.908       .  S
Ni117       O119   1.910       .  S
O118       Ni123   1.924       .  S
C120        O121   1.267       .  A
C120        C182   1.440       .  S
O125       Ni627   1.935       .  S
O125        C146   1.271   1_655  A
O126       Ni397   1.909   1_545  S
O126        C135   1.267       .  A
O127       Ni131   1.917       .  S
O127       Ni149   1.911   1_556  S
O127       Ni887   1.909   1_556  S
O127        H398   0.966       .  S
C128        O145   1.271       .  A
C128        O137   1.274       .  A
C128        C178   1.434       .  S
O129       Ni644   1.936       .  S
O129        C135   1.271       .  A
O130       Ni148   1.906       .  S
O130        C132   1.267   1_554  A
Ni131       O134   1.926       .  S
Ni131       O136   1.907   1_556  S
Ni131       O621   1.935       .  S
C132        O142   1.273       .  A
C132        C213   1.439       .  S
O133       Ni149   1.910   1_556  S
O133        C139   1.271       .  A
O134        C139   1.274       .  A
C135        C181   1.440       .  S
O136        C138   1.267       .  A
O137       Ni148   1.927       .  S
C138        O144   1.273       .  A
C138        C180   1.440       .  S
C139        C216   1.433       .  S
H140        O141   0.966       .  S
O141       Ni397   1.909   1_545  S
O141       Ni639   1.910       .  S
O141       Ni644   1.917       .  S
O142       Ni143   1.935   1_556  S
Ni143       O145   1.910       .  S
Ni143       O395   1.908   1_544  S
Ni143       O871   1.909   1_444  S
Ni143       O637   1.910   1_455  S
O144       Ni149   1.936       .  S
C146        O147   1.267       .  A
C146        C217   1.439       .  S
O147       Ni391   1.908   1_556  S
Ni148       O625   1.936   1_455  S
Ni148       O637   1.917   1_455  S
Ni149       O374   1.909       .  S
Ni149       O389   1.909       .  S
H150        O375   0.966       .  S
O151       Ni653   1.936       .  S
O151        C172   1.271       .  A
O152       Ni175   1.908       .  S
O152        C161   1.267       .  A
O153       Ni653   1.917       .  S
O153       Ni919   1.911       .  S
O153       Ni417   1.909   1_545  S
O153        H424   0.966       .  S
C154        O171   1.271       .  A
C154        O163   1.274       .  A
C154        C245   1.433       .  S
O155       Ni174   1.936       .  S
O155        C657   1.271       .  A
O156       Ni174   1.906       .  S
O156        C158   1.267       .  A
Ni157       O160   1.926       .  S
Ni157       O162   1.907       .  S
Ni157       O647   1.936   1_455  S
Ni157       O649   1.917   1_455  S
C158        O168   1.273       .  A
C158        C210   1.438       .  S
O159       Ni423   1.910       .  S
O159        C165   1.271       .  A
O160        C165   1.274       .  A
C161        O651   1.271   1_455  A
C161        C248   1.440       .  S
O162        C164   1.267       .  A
O163       Ni174   1.927       .  S
C164        O170   1.273       .  A
C164        C243   1.439       .  S
C165        C208   1.433       .  S
H166        O167   0.966       .  S
O167       Ni169   1.910       .  S
O167       Ni174   1.917       .  S
O167       Ni671   1.909       .  S
O168       Ni169   1.935       .  S
Ni169       O171   1.909       .  S
Ni169       O421   1.908       .  S
Ni169       O401   1.909       .  S
O170       Ni423   1.936       .  S
C172        O173   1.267       .  A
C172        C212   1.439       .  S
O173       Ni417   1.908   1_545  S
Ni175       O407   1.910       .  S
Ni175       O418   1.936       .  S
Ni175       O897   1.911   1_455  S
Ni175       O663   1.909   1_455  S
H176        O401   0.966       .  S
C177        C178   1.205       .  T
C179        C180   1.209       .  T
C181        C182   1.209       .  T
C183        C184   1.204       .  T
C184        C681   1.410   1_455  S
C185        C186   1.204       .  T
C185        C680   1.410       .  S
C187        C188   1.203       .  T
C188        C437   1.408       .  S
C189        C190   1.203   1_565  T
C189        C436   1.408       .  S
C191        C192   1.205       .  T
C192        C193   1.410       .  S
C193        C194   1.204       .  T
C195        C196   1.204       .  T
C196        C197   1.410       .  S
C197        C446   1.205       .  T
C198        C445   1.205   1_545  T
C199        C200   1.203       .  T
C200        C697   1.408   1_455  S
C201        C202   1.203       .  T
C201        C696   1.408       .  S
C203        C204   1.203       .  T
C204        C205   1.408       .  S
C205        C206   1.204       .  T
C207        C208   1.204       .  T
C209        C210   1.208       .  T
C211        C212   1.208       .  T
C213        C214   1.208       .  T
C215        C216   1.205       .  T
C217        C218   1.208       .  T
C219        C716   1.204   1_455  T
C220        C715   1.204       .  T
C220        C221   1.409       .  S
C221        C222   1.203       .  T
C223        C224   1.204       .  T
C224        C225   1.410   1_545  S
C225        C474   1.205       .  T
C226        C473   1.205       .  T
C227        C228   1.204       .  T
C228        C229   1.408       .  S
C229        C230   1.203       .  T
C231        C728   1.204   1_455  T
C232        C727   1.204       .  T
C232        C233   1.409       .  S
C233        C234   1.204       .  T
C235        C484   1.204       .  T
C236        C483   1.204   1_545  T
C236        C237   1.408       .  S
C237        C238   1.203       .  T
C239        C240   1.204       .  T
C240        C241   1.410       .  S
C241        C242   1.204       .  T
C243        C244   1.209       .  T
C245        C246   1.205       .  T
C247        C248   1.209       .  T
O249       Ni255   1.935       .  S
O249        C270   1.270       .  A
O250       Ni273   1.899       .  S
O250        C259   1.262       .  A
O251       Ni255   1.927       .  S
O251       Ni273   1.914       .  S
O251       Ni267   1.913       .  S
O251        H274   0.966       .  S
C252        O269   1.270       .  A
C252        O261   1.272       .  A
C252        C479   1.432       .  S
O253       Ni272   1.932       .  S
O253        C259   1.269       .  A
O254       Ni272   1.906       .  S
O254        C256   1.267       .  A
Ni255       O258   1.932       .  S
Ni255       O260   1.906       .  S
C256        O266   1.274       .  A
C256        C492   1.440       .  S
O257       Ni273   1.903       .  S
O257        C263   1.268       .  A
O258        C263   1.273       .  A
C259        C487   1.433       .  S
O260        C262   1.266       .  A
O261       Ni272   1.923       .  S
C262        O268   1.268       .  A
C262        C483   1.432       .  S
C263        C494   1.433       .  S
H264        O265   0.967       .  S
O265       Ni273   1.908       .  S
O265       Ni267   1.912       .  S
O265       Ni272   1.922       .  S
O266       Ni267   1.938       .  S
Ni267       O271   1.907       .  S
Ni267       O269   1.909       .  S
O268       Ni273   1.924       .  S
C270        O271   1.267       .  A
C270        C495   1.440       .  S
C275        H276   1.112       .  S
C275        C281   1.532       .  S
C275        C280   1.532       .  S
C275        C279   1.534       .  S
C277        H278   1.112       .  S
C277        C283   1.532       .  S
C277        C282   1.533       .  S
C277        C284   1.532       .  S
C279        C282   1.368       .  D
C279        C486   1.440       .  S
C280        C283   1.367       .  D
C280        C482   1.442       .  S
C281        C284   1.369       .  D
C281        C490   1.442       .  S
C282        C471   1.442       .  S
C283        C470   1.441       .  S
C284        C478   1.441       .  S
O285       Ni291   1.931       .  S
O285        C306   1.269       .  A
O286       Ni309   1.907       .  S
O286        C295   1.267       .  A
O287       Ni291   1.922       .  S
O287       Ni309   1.911       .  S
O287       Ni303   1.908       .  S
O287        H310   0.966       .  S
C288        O305   1.268       .  A
C288        O297   1.273       .  A
C288        C463   1.433       .  S
O289       Ni308   1.934       .  S
O289        C295   1.271       .  A
O290       Ni308   1.908       .  S
O290        C292   1.267       .  A
Ni291       O294   1.922       .  S
Ni291       O296   1.906       .  S
C292        O302   1.269       .  A
C292        C474   1.434       .  S
O293       Ni309   1.909       .  S
O293        C299   1.270       .  A
O294        C299   1.272       .  A
C295        C466   1.439       .  S
O296        C298   1.267       .  A
O297       Ni308   1.932       .  S
C298        O304   1.274       .  A
C298        C462   1.439       .  S
C299        C467   1.432       .  S
H300        O301   0.966       .  S
O301       Ni309   1.913       .  S
O301       Ni303   1.913       .  S
O301       Ni308   1.925       .  S
O302       Ni303   1.926       .  S
Ni303       O307   1.899       .  S
Ni303       O305   1.902       .  S
O304       Ni309   1.936       .  S
C306        O307   1.262       .  A
C306        C475   1.432       .  S
O311       Ni317   1.931       .  S
O311        C332   1.269       .  A
O312       Ni335   1.907       .  S
O312        C321   1.267       .  A
O313       Ni317   1.922       .  S
O313       Ni335   1.912       .  S
O313       Ni329   1.908       .  S
O313        H336   0.967       .  S
C314        O331   1.268       .  A
C314        O323   1.273       .  A
C314        C455   1.432       .  S
O315       Ni334   1.934       .  S
O315        C321   1.271       .  A
O316       Ni334   1.908       .  S
O316        C318   1.267       .  A
Ni317       O320   1.922       .  S
Ni317       O322   1.905       .  S
C318        O328   1.269       .  A
C318        C446   1.434       .  S
O319       Ni335   1.909       .  S
O319        C325   1.270       .  A
O320        C325   1.272       .  A
C321        C459   1.439       .  S
O322        C324   1.267       .  A
O323       Ni334   1.931       .  S
C324        O330   1.274       .  A
C324        C457   1.438       .  S
C325        C450   1.431       .  S
H326        O327   0.965       .  S
O327       Ni335   1.912       .  S
O327       Ni329   1.913       .  S
O327       Ni334   1.926       .  S
O328       Ni329   1.926       .  S
Ni329       O333   1.898       .  S
Ni329       O331   1.902       .  S
O330       Ni335   1.936       .  S
C332        O333   1.262       .  A
C332        C454   1.432       .  S
C337        H338   1.112       .  S
C337        C343   1.532       .  S
C337        C342   1.534       .  S
C337        C341   1.532       .  S
C339        H340   1.112       .  S
C339        C345   1.533       .  S
C339        C344   1.532       .  S
C339        C346   1.532       .  S
C341        C344   1.369       .  D
C341        C442   1.442       .  S
C342        C345   1.368       .  D
C342        C435   1.440       .  S
C343        C346   1.367       .  D
C343        C431   1.442       .  S
C344        C451   1.441       .  S
C345        C443   1.442       .  S
C346        C447   1.441       .  S
O347       Ni353   1.934       .  S
O347        C368   1.270       .  A
O348       Ni371   1.900       .  S
O348        C357   1.262       .  A
O349       Ni353   1.927       .  S
O349       Ni371   1.915       .  S
O349       Ni365   1.914       .  S
O349        H372   0.967       .  S
C350        O367   1.270       .  A
C350        O359   1.272       .  A
C350        C434   1.433       .  S
O351       Ni370   1.932       .  S
O351        C357   1.269       .  A
O352       Ni370   1.906       .  S
O352        C354   1.268       .  A
Ni353       O356   1.932       .  S
Ni353       O358   1.906       .  S
C354        O364   1.274       .  A
C354        C427   1.440       .  S
O355       Ni371   1.903       .  S
O355        C361   1.268       .  A
O356        C361   1.273       .  A
C357        C439   1.433       .  S
O358        C360   1.267       .  A
O359       Ni370   1.923       .  S
C360        O366   1.268       .  A
C360        C438   1.431       .  S
C361        C425   1.434       .  S
H362        O363   0.966       .  S
O363       Ni371   1.908       .  S
O363       Ni365   1.912       .  S
O363       Ni370   1.922       .  S
O364       Ni365   1.937       .  S
Ni365       O369   1.908       .  S
Ni365       O367   1.910       .  S
O366       Ni371   1.924       .  S
C368        O369   1.267       .  A
C368        C430   1.440       .  S
O373       Ni875   1.935       .  S
O373        C394   1.271   1_655  A
O374        C383   1.267       .  A
O375       Ni379   1.917       .  S
O375       Ni397   1.911   1_556  S
O375       Ni639   1.909   1_566  S
C376        O393   1.271       .  A
C376        O385   1.274       .  A
C376        C426   1.434       .  S
O377       Ni892   1.936       .  S
O377        C383   1.271       .  A
O378       Ni396   1.906       .  S
O378        C380   1.267   1_554  A
Ni379       O869   1.935       .  S
Ni379       O382   1.926       .  S
Ni379       O384   1.907   1_556  S
C380        O390   1.273       .  A
C380        C461   1.439       .  S
O381       Ni397   1.910   1_556  S
O381        C387   1.271       .  A
O382        C387   1.274       .  A
C383        C429   1.440       .  S
O384        C386   1.267       .  A
O385       Ni396   1.927       .  S
C386        O392   1.273       .  A
C386        C428   1.440       .  S
C387        C464   1.433       .  S
H388        O389   0.966       .  S
O389       Ni887   1.910       .  S
O389       Ni892   1.917       .  S
O390       Ni391   1.935   1_556  S
Ni391       O393   1.910       .  S
Ni391       O623   1.909   1_454  S
Ni391       O885   1.910   1_455  S
O392       Ni397   1.936       .  S
C394        O395   1.267       .  A
C394        C465   1.439       .  S
Ni396       O873   1.936   1_455  S
Ni396       O885   1.917   1_455  S
O399       Ni901   1.936       .  S
O399        C420   1.271       .  A
O400       Ni423   1.908   1_565  S
O400        C409   1.267       .  A
O401       Ni901   1.917       .  S
O401       Ni671   1.911       .  S
C402        O419   1.271       .  A
C402        O411   1.274       .  A
C402        C493   1.433       .  S
O403       Ni422   1.936       .  S
O403        C905   1.271       .  A
O404       Ni422   1.906       .  S
O404        C406   1.267       .  A
Ni405       O895   1.936   1_455  S
Ni405       O408   1.926       .  S
Ni405       O410   1.907       .  S
Ni405       O897   1.917   1_455  S
C406        O416   1.273       .  A
C406        C458   1.438       .  S
O407        C413   1.271       .  A
O408        C413   1.274       .  A
C409        O899   1.271   1_455  A
C409        C496   1.440       .  S
O410        C412   1.267       .  A
O411       Ni422   1.927       .  S
C412        O418   1.273       .  A
C412        C491   1.439       .  S
C413        C456   1.433       .  S
H414        O415   0.966       .  S
O415       Ni919   1.909   1_565  S
O415       Ni417   1.910       .  S
O415       Ni422   1.917       .  S
O416       Ni417   1.935       .  S
Ni417       O419   1.909       .  S
C420        O421   1.267       .  A
C420        C460   1.439       .  S
Ni423       O649   1.911   1_455  S
Ni423       O911   1.909   1_445  S
C425        C426   1.205       .  T
C427        C428   1.209       .  T
C429        C430   1.209       .  T
C431        C432   1.204       .  T
C432        C929   1.410   1_455  S
C433        C434   1.204       .  T
C433        C928   1.410       .  S
C435        C436   1.203       .  T
C437        C438   1.203       .  T
C439        C440   1.205       .  T
C440        C441   1.410       .  S
C441        C442   1.204       .  T
C443        C444   1.204       .  T
C444        C445   1.410       .  S
C447        C448   1.203       .  T
C448        C945   1.408   1_455  S
C449        C450   1.203       .  T
C449        C944   1.408       .  S
C451        C452   1.203       .  T
C452        C453   1.408       .  S
C453        C454   1.204       .  T
C455        C456   1.204       .  T
C457        C458   1.208       .  T
C459        C460   1.208       .  T
C461        C462   1.208       .  T
C463        C464   1.205       .  T
C465        C466   1.208       .  T
C467        C964   1.204   1_455  T
C468        C963   1.204       .  T
C468        C469   1.409       .  S
C469        C470   1.203       .  T
C471        C472   1.204       .  T
C472        C473   1.410       .  S
C475        C476   1.204       .  T
C476        C477   1.408       .  S
C477        C478   1.203       .  T
C479        C976   1.204   1_455  T
C480        C975   1.204       .  T
C480        C481   1.409       .  S
C481        C482   1.204       .  T
C484        C485   1.408       .  S
C485        C486   1.203       .  T
C487        C488   1.204       .  T
C488        C489   1.410       .  S
C489        C490   1.204       .  T
C491        C492   1.209       .  T
C493        C494   1.205       .  T
C495        C496   1.209       .  T
O497       Ni503   1.935       .  S
O497        C518   1.270       .  A
O498       Ni521   1.899       .  S
O498        C507   1.262       .  A
O499       Ni503   1.927       .  S
O499       Ni521   1.914       .  S
O499       Ni515   1.913       .  S
O499        H522   0.966       .  S
C500        O517   1.270       .  A
C500        O509   1.272       .  A
C500        C727   1.432       .  S
O501       Ni520   1.932       .  S
O501        C507   1.269       .  A
O502       Ni520   1.906       .  S
O502        C504   1.267       .  A
Ni503       O506   1.932       .  S
Ni503       O508   1.906       .  S
C504        O514   1.274       .  A
C504        C740   1.440       .  S
O505       Ni521   1.903       .  S
O505        C511   1.268       .  A
O506        C511   1.273       .  A
C507        C735   1.433       .  S
O508        C510   1.266       .  A
O509       Ni520   1.923       .  S
C510        O516   1.268       .  A
C510        C731   1.432       .  S
C511        C742   1.433       .  S
H512        O513   0.967       .  S
O513       Ni521   1.908       .  S
O513       Ni515   1.912       .  S
O513       Ni520   1.922       .  S
O514       Ni515   1.938       .  S
Ni515       O519   1.907       .  S
Ni515       O517   1.909       .  S
O516       Ni521   1.924       .  S
C518        O519   1.267       .  A
C518        C743   1.440       .  S
C523        H524   1.112       .  S
C523        C529   1.532       .  S
C523        C528   1.532       .  S
C523        C527   1.534       .  S
C525        H526   1.112       .  S
C525        C531   1.532       .  S
C525        C530   1.533       .  S
C525        C532   1.532       .  S
C527        C530   1.368       .  D
C527        C734   1.440       .  S
C528        C531   1.367       .  D
C528        C730   1.442       .  S
C529        C532   1.369       .  D
C529        C738   1.442       .  S
C530        C719   1.442       .  S
C531        C718   1.441       .  S
C532        C726   1.441       .  S
O533       Ni539   1.931       .  S
O533        C554   1.269       .  A
O534       Ni557   1.907       .  S
O534        C543   1.267       .  A
O535       Ni539   1.922       .  S
O535       Ni557   1.911       .  S
O535       Ni551   1.908       .  S
O535        H558   0.966       .  S
C536        O553   1.268       .  A
C536        O545   1.273       .  A
C536        C711   1.433       .  S
O537       Ni556   1.934       .  S
O537        C543   1.271       .  A
O538       Ni556   1.908       .  S
O538        C540   1.267       .  A
Ni539       O542   1.922       .  S
Ni539       O544   1.906       .  S
C540        O550   1.269       .  A
C540        C722   1.434       .  S
O541       Ni557   1.909       .  S
O541        C547   1.270       .  A
O542        C547   1.272       .  A
C543        C714   1.439       .  S
O544        C546   1.267       .  A
O545       Ni556   1.932       .  S
C546        O552   1.274       .  A
C546        C710   1.439       .  S
C547        C715   1.432       .  S
H548        O549   0.966       .  S
O549       Ni557   1.913       .  S
O549       Ni551   1.913       .  S
O549       Ni556   1.925       .  S
O550       Ni551   1.926       .  S
Ni551       O555   1.899       .  S
Ni551       O553   1.902       .  S
O552       Ni557   1.936       .  S
C554        O555   1.262       .  A
C554        C723   1.432       .  S
O559       Ni565   1.931       .  S
O559        C580   1.269       .  A
O560       Ni583   1.907       .  S
O560        C569   1.267       .  A
O561       Ni565   1.922       .  S
O561       Ni583   1.912       .  S
O561       Ni577   1.908       .  S
O561        H584   0.967       .  S
C562        O579   1.268       .  A
C562        O571   1.273       .  A
C562        C703   1.432       .  S
O563       Ni582   1.934       .  S
O563        C569   1.271       .  A
O564       Ni582   1.908       .  S
O564        C566   1.267       .  A
Ni565       O568   1.922       .  S
Ni565       O570   1.905       .  S
C566        O576   1.269       .  A
C566        C694   1.434       .  S
O567       Ni583   1.909       .  S
O567        C573   1.270       .  A
O568        C573   1.272       .  A
C569        C707   1.439       .  S
O570        C572   1.267       .  A
O571       Ni582   1.931       .  S
C572        O578   1.274       .  A
C572        C705   1.438       .  S
C573        C698   1.431       .  S
H574        O575   0.965       .  S
O575       Ni583   1.912       .  S
O575       Ni577   1.913       .  S
O575       Ni582   1.926       .  S
O576       Ni577   1.926       .  S
Ni577       O581   1.898       .  S
Ni577       O579   1.902       .  S
O578       Ni583   1.936       .  S
C580        O581   1.262       .  A
C580        C702   1.432       .  S
C585        H586   1.112       .  S
C585        C591   1.532       .  S
C585        C590   1.534       .  S
C585        C589   1.532       .  S
C587        H588   1.112       .  S
C587        C593   1.533       .  S
C587        C592   1.532       .  S
C587        C594   1.532       .  S
C589        C592   1.369       .  D
C589        C690   1.442       .  S
C590        C593   1.368       .  D
C590        C683   1.440       .  S
C591        C594   1.367       .  D
C591        C679   1.442       .  S
C592        C699   1.441       .  S
C593        C691   1.442       .  S
C594        C695   1.441       .  S
O595       Ni601   1.934       .  S
O595        C616   1.270       .  A
O596       Ni619   1.900       .  S
O596        C605   1.262       .  A
O597       Ni601   1.927       .  S
O597       Ni619   1.915       .  S
O597       Ni613   1.914       .  S
O597        H620   0.967       .  S
C598        O615   1.270       .  A
C598        O607   1.272       .  A
C598        C682   1.433       .  S
O599       Ni618   1.932       .  S
O599        C605   1.269       .  A
O600       Ni618   1.906       .  S
O600        C602   1.268       .  A
Ni601       O604   1.932       .  S
Ni601       O606   1.906       .  S
C602        O612   1.274       .  A
C602        C675   1.440       .  S
O603       Ni619   1.903       .  S
O603        C609   1.268       .  A
O604        C609   1.273       .  A
C605        C687   1.433       .  S
O606        C608   1.267       .  A
O607       Ni618   1.923       .  S
C608        O614   1.268       .  A
C608        C686   1.431       .  S
C609        C673   1.434       .  S
H610        O611   0.966       .  S
O611       Ni619   1.908       .  S
O611       Ni613   1.912       .  S
O611       Ni618   1.922       .  S
O612       Ni613   1.937       .  S
Ni613       O617   1.908       .  S
Ni613       O615   1.910       .  S
O614       Ni619   1.924       .  S
C616        O617   1.267       .  A
C616        C678   1.440       .  S
O621        C642   1.271       .  A
O622       Ni893   1.909   1_545  S
O622        C631   1.267       .  A
O623       Ni627   1.917       .  S
O623       Ni645   1.911   1_556  S
O623        H894   0.966       .  S
C624        O641   1.271       .  A
C624        O633   1.274       .  A
C624        C674   1.434       .  S
O625        C631   1.271       .  A
O626       Ni644   1.906       .  S
O626        C628   1.267   1_554  A
Ni627       O630   1.926       .  S
Ni627       O632   1.907   1_556  S
C628        O638   1.273       .  A
C628        C709   1.439       .  S
O629       Ni645   1.910   1_556  S
O629        C635   1.271       .  A
O630        C635   1.274       .  A
C631        C677   1.440       .  S
O632        C634   1.267       .  A
O633       Ni644   1.927       .  S
C634        O640   1.273       .  A
C634        C676   1.440       .  S
C635        C712   1.433       .  S
H636        O637   0.966       .  S
O637       Ni893   1.909   1_545  S
O638       Ni639   1.935   1_556  S
Ni639       O891   1.908   1_544  S
Ni639       O641   1.910       .  S
O640       Ni645   1.936       .  S
C642        O643   1.267       .  A
C642        C713   1.439       .  S
O643       Ni887   1.908   1_556  S
Ni645       O870   1.909       .  S
Ni645       O885   1.909       .  S
H646        O871   0.966       .  S
O647        C668   1.271       .  A
O648       Ni671   1.908       .  S
O648        C657   1.267       .  A
O649       Ni913   1.909   1_545  S
O649        H920   0.966       .  S
C650        O667   1.271       .  A
C650        O659   1.274       .  A
C650        C741   1.433       .  S
O651       Ni670   1.936       .  S
O652       Ni670   1.906       .  S
O652        C654   1.267       .  A
Ni653       O656   1.926       .  S
Ni653       O658   1.907       .  S
C654        O664   1.273       .  A
C654        C706   1.438       .  S
O655       Ni919   1.910       .  S
O655        C661   1.271       .  A
O656        C661   1.274       .  A
C657        C744   1.440       .  S
O658        C660   1.267       .  A
O659       Ni670   1.927       .  S
C660        O666   1.273       .  A
C660        C739   1.439       .  S
C661        C704   1.433       .  S
H662        O663   0.966       .  S
O663       Ni665   1.910       .  S
O663       Ni670   1.917       .  S
O664       Ni665   1.935       .  S
Ni665       O917   1.908       .  S
Ni665       O667   1.909       .  S
Ni665       O897   1.909       .  S
O666       Ni919   1.936       .  S
C668        O669   1.267       .  A
C668        C708   1.439       .  S
O669       Ni913   1.908   1_545  S
Ni671       O903   1.910       .  S
Ni671       O914   1.936       .  S
H672        O897   0.966       .  S
C673        C674   1.205       .  T
C675        C676   1.209       .  T
C677        C678   1.209       .  T
C679        C680   1.204       .  T
C681        C682   1.204       .  T
C683        C684   1.203       .  T
C684        C933   1.408       .  S
C685        C686   1.203   1_565  T
C685        C932   1.408       .  S
C687        C688   1.205       .  T
C688        C689   1.410       .  S
C689        C690   1.204       .  T
C691        C692   1.204       .  T
C692        C693   1.410       .  S
C693        C942   1.205       .  T
C694        C941   1.205   1_545  T
C695        C696   1.203       .  T
C697        C698   1.203       .  T
C699        C700   1.203       .  T
C700        C701   1.408       .  S
C701        C702   1.204       .  T
C703        C704   1.204       .  T
C705        C706   1.208       .  T
C707        C708   1.208       .  T
C709        C710   1.208       .  T
C711        C712   1.205       .  T
C713        C714   1.208       .  T
C716        C717   1.409       .  S
C717        C718   1.203       .  T
C719        C720   1.204       .  T
C720        C721   1.410   1_545  S
C721        C970   1.205       .  T
C722        C969   1.205       .  T
C723        C724   1.204       .  T
C724        C725   1.408       .  S
C725        C726   1.203       .  T
C728        C729   1.409       .  S
C729        C730   1.204       .  T
C731        C980   1.204       .  T
C732        C979   1.204   1_545  T
C732        C733   1.408       .  S
C733        C734   1.203       .  T
C735        C736   1.204       .  T
C736        C737   1.410       .  S
C737        C738   1.204       .  T
C739        C740   1.209       .  T
C741        C742   1.205       .  T
C743        C744   1.209       .  T
O745       Ni751   1.935       .  S
O745        C766   1.270       .  A
O746       Ni769   1.899       .  S
O746        C755   1.262       .  A
O747       Ni751   1.927       .  S
O747       Ni769   1.914       .  S
O747       Ni763   1.913       .  S
O747        H770   0.966       .  S
C748        O765   1.270       .  A
C748        O757   1.272       .  A
C748        C975   1.432       .  S
O749       Ni768   1.932       .  S
O749        C755   1.269       .  A
O750       Ni768   1.906       .  S
O750        C752   1.267       .  A
Ni751       O754   1.932       .  S
Ni751       O756   1.906       .  S
C752        O762   1.274       .  A
C752        C988   1.440       .  S
O753       Ni769   1.903       .  S
O753        C759   1.268       .  A
O754        C759   1.273       .  A
C755        C983   1.433       .  S
O756        C758   1.266       .  A
O757       Ni768   1.923       .  S
C758        O764   1.268       .  A
C758        C979   1.432       .  S
C759        C990   1.433       .  S
H760        O761   0.967       .  S
O761       Ni769   1.908       .  S
O761       Ni763   1.912       .  S
O761       Ni768   1.922       .  S
O762       Ni763   1.938       .  S
Ni763       O767   1.907       .  S
Ni763       O765   1.909       .  S
O764       Ni769   1.924       .  S
C766        O767   1.267       .  A
C766        C991   1.440       .  S
C771        H772   1.112       .  S
C771        C777   1.532       .  S
C771        C776   1.532       .  S
C771        C775   1.534       .  S
C773        H774   1.112       .  S
C773        C779   1.532       .  S
C773        C778   1.533       .  S
C773        C780   1.532       .  S
C775        C778   1.368       .  D
C775        C982   1.440       .  S
C776        C779   1.367       .  D
C776        C978   1.442       .  S
C777        C780   1.369       .  D
C777        C986   1.442       .  S
C778        C967   1.442       .  S
C779        C966   1.441       .  S
C780        C974   1.441       .  S
O781       Ni787   1.931       .  S
O781        C802   1.269       .  A
O782       Ni805   1.907       .  S
O782        C791   1.267       .  A
O783       Ni787   1.922       .  S
O783       Ni805   1.911       .  S
O783       Ni799   1.908       .  S
O783        H806   0.966       .  S
C784        O801   1.268       .  A
C784        O793   1.273       .  A
C784        C959   1.433       .  S
O785       Ni804   1.934       .  S
O785        C791   1.271       .  A
O786       Ni804   1.908       .  S
O786        C788   1.267       .  A
Ni787       O790   1.922       .  S
Ni787       O792   1.906       .  S
C788        O798   1.269       .  A
C788        C970   1.434       .  S
O789       Ni805   1.909       .  S
O789        C795   1.270       .  A
O790        C795   1.272       .  A
C791        C962   1.439       .  S
O792        C794   1.267       .  A
O793       Ni804   1.932       .  S
C794        O800   1.274       .  A
C794        C958   1.439       .  S
C795        C963   1.432       .  S
H796        O797   0.966       .  S
O797       Ni805   1.913       .  S
O797       Ni799   1.913       .  S
O797       Ni804   1.925       .  S
O798       Ni799   1.926       .  S
Ni799       O803   1.899       .  S
Ni799       O801   1.902       .  S
O800       Ni805   1.936       .  S
C802        O803   1.262       .  A
C802        C971   1.432       .  S
O807       Ni813   1.931       .  S
O807        C828   1.269       .  A
O808       Ni831   1.907       .  S
O808        C817   1.267       .  A
O809       Ni813   1.922       .  S
O809       Ni831   1.912       .  S
O809       Ni825   1.908       .  S
O809        H832   0.967       .  S
C810        O827   1.268       .  A
C810        O819   1.273       .  A
C810        C951   1.432       .  S
O811       Ni830   1.934       .  S
O811        C817   1.271       .  A
O812       Ni830   1.908       .  S
O812        C814   1.267       .  A
Ni813       O816   1.922       .  S
Ni813       O818   1.905       .  S
C814        O824   1.269       .  A
C814        C942   1.434       .  S
O815       Ni831   1.909       .  S
O815        C821   1.270       .  A
O816        C821   1.272       .  A
C817        C955   1.439       .  S
O818        C820   1.267       .  A
O819       Ni830   1.931       .  S
C820        O826   1.274       .  A
C820        C953   1.438       .  S
C821        C946   1.431       .  S
H822        O823   0.965       .  S
O823       Ni831   1.912       .  S
O823       Ni825   1.913       .  S
O823       Ni830   1.926       .  S
O824       Ni825   1.926       .  S
Ni825       O829   1.898       .  S
Ni825       O827   1.902       .  S
O826       Ni831   1.936       .  S
C828        O829   1.262       .  A
C828        C950   1.432       .  S
C833        H834   1.112       .  S
C833        C839   1.532       .  S
C833        C838   1.534       .  S
C833        C837   1.532       .  S
C835        H836   1.112       .  S
C835        C841   1.533       .  S
C835        C840   1.532       .  S
C835        C842   1.532       .  S
C837        C840   1.369       .  D
C837        C938   1.442       .  S
C838        C841   1.368       .  D
C838        C931   1.440       .  S
C839        C842   1.367       .  D
C839        C927   1.442       .  S
C840        C947   1.441       .  S
C841        C939   1.442       .  S
C842        C943   1.441       .  S
O843       Ni849   1.934       .  S
O843        C864   1.270       .  A
O844       Ni867   1.900       .  S
O844        C853   1.262       .  A
O845       Ni849   1.927       .  S
O845       Ni867   1.915       .  S
O845       Ni861   1.914       .  S
O845        H868   0.967       .  S
C846        O863   1.270       .  A
C846        O855   1.272       .  A
C846        C930   1.433       .  S
O847       Ni866   1.932       .  S
O847        C853   1.269       .  A
O848       Ni866   1.906       .  S
O848        C850   1.268       .  A
Ni849       O852   1.932       .  S
Ni849       O854   1.906       .  S
C850        O860   1.274       .  A
C850        C923   1.440       .  S
O851       Ni867   1.903       .  S
O851        C857   1.268       .  A
O852        C857   1.273       .  A
C853        C935   1.433       .  S
O854        C856   1.267       .  A
O855       Ni866   1.923       .  S
C856        O862   1.268       .  A
C856        C934   1.431       .  S
C857        C921   1.434       .  S
H858        O859   0.966       .  S
O859       Ni867   1.908       .  S
O859       Ni861   1.912       .  S
O859       Ni866   1.922       .  S
O860       Ni861   1.937       .  S
Ni861       O865   1.908       .  S
Ni861       O863   1.910       .  S
O862       Ni867   1.924       .  S
C864        O865   1.267       .  A
C864        C926   1.440       .  S
O869        C890   1.271       .  A
O870        C879   1.267       .  A
O871       Ni875   1.917       .  S
O871       Ni893   1.911   1_556  S
C872        O889   1.271       .  A
C872        O881   1.274       .  A
C872        C922   1.434       .  S
O873        C879   1.271       .  A
O874       Ni892   1.906       .  S
O874        C876   1.267   1_554  A
Ni875       O878   1.926       .  S
Ni875       O880   1.907   1_556  S
C876        O886   1.273       .  A
C876        C957   1.439       .  S
O877       Ni893   1.910   1_556  S
O877        C883   1.271       .  A
O878        C883   1.274       .  A
C879        C925   1.440       .  S
O880        C882   1.267       .  A
O881       Ni892   1.927       .  S
C882        O888   1.273       .  A
C882        C924   1.440       .  S
C883        C960   1.433       .  S
H884        O885   0.966       .  S
O886       Ni887   1.935   1_556  S
Ni887       O889   1.910       .  S
O888       Ni893   1.936       .  S
C890        O891   1.267       .  A
C890        C961   1.439       .  S
O895        C916   1.271       .  A
O896       Ni919   1.908   1_565  S
O896        C905   1.267       .  A
C898        O915   1.271       .  A
C898        O907   1.274       .  A
C898        C989   1.433       .  S
O899       Ni918   1.936       .  S
O900       Ni918   1.906       .  S
O900        C902   1.267       .  A
Ni901       O904   1.926       .  S
Ni901       O906   1.907       .  S
C902        O912   1.273       .  A
C902        C954   1.438       .  S
O903        C909   1.271       .  A
O904        C909   1.274       .  A
C905        C992   1.440       .  S
O906        C908   1.267       .  A
O907       Ni918   1.927       .  S
C908        O914   1.273       .  A
C908        C987   1.439       .  S
C909        C952   1.433       .  S
H910        O911   0.966       .  S
O911       Ni913   1.910       .  S
O911       Ni918   1.917       .  S
O912       Ni913   1.935       .  S
Ni913       O915   1.909       .  S
C916        O917   1.267       .  A
C916        C956   1.439       .  S
C921        C922   1.205       .  T
C923        C924   1.209       .  T
C925        C926   1.209       .  T
C927        C928   1.204       .  T
C929        C930   1.204       .  T
C931        C932   1.203       .  T
C933        C934   1.203       .  T
C935        C936   1.205       .  T
C936        C937   1.410       .  S
C937        C938   1.204       .  T
C939        C940   1.204       .  T
C940        C941   1.410       .  S
C943        C944   1.203       .  T
C945        C946   1.203       .  T
C947        C948   1.203       .  T
C948        C949   1.408       .  S
C949        C950   1.204       .  T
C951        C952   1.204       .  T
C953        C954   1.208       .  T
C955        C956   1.208       .  T
C957        C958   1.208       .  T
C959        C960   1.205       .  T
C961        C962   1.208       .  T
C964        C965   1.409       .  S
C965        C966   1.203       .  T
C967        C968   1.204       .  T
C968        C969   1.410       .  S
C971        C972   1.204       .  T
C972        C973   1.408       .  S
C973        C974   1.203       .  T
C976        C977   1.409       .  S
C977        C978   1.204       .  T
C980        C981   1.408       .  S
C981        C982   1.203       .  T
C983        C984   1.204       .  T
C984        C985   1.410       .  S
C985        C986   1.204       .  T
C987        C988   1.209       .  T
C989        C990   1.205       .  T
C991        C992   1.209       .  T
