geometry optimzed in LAMMPS
_audit_creation_date              2020-12-01 
_audit_creation_method            'lammps2cif' 
_symmetry_space_group_name_H-M    'P1' 
_symmetry_Int_Tables_number       1 
_symmetry_cell_setting            triclinic 
loop_ 
_symmetry_equiv_pos_as_xyz 
  x,y,z 
_cell_length_a                    32.98888557 
_cell_length_b                    28.028508661853802 
_cell_length_c                    21.588856905036018 
_cell_angle_alpha                 88.69075960219747 
_cell_angle_beta                  89.76166992831149 
_cell_angle_gamma                 86.66777002916187 
loop_ 
_atom_site_label 
_atom_site_type_symbol 
_atom_site_fract_x 
_atom_site_fract_y 
_atom_site_fract_z 
_atom_site_charge 
C1          C  0.21209509  0.07288503  0.24690497     0.01100
C2          C  0.78753860  0.06870786  0.25395551     0.01100
In3        In  0.89443023  0.13224276  0.00141363     1.36900
C4          C  0.89853517  0.22569927  0.00495661     0.81100
O5          O  0.84519176  0.14265612  0.07158198    -0.57300
O6          O  0.87931285  0.07581314  0.07266659    -0.48200
C7          C  0.85098554  0.10538435  0.40722182     0.73800
O8          O  0.84625546  0.14606616  0.43031297    -0.43100
C9          C  0.97441540  0.11397775  0.49813597     0.78500
O10         O  0.89682169  0.20403958  0.45506116    -0.54900
O11         O  0.95437396  0.11408737  0.04776169    -0.45000
O12         O  0.89952085  0.19958542  0.05318184    -0.51400
C13         C  0.85173142  0.10227178  0.09719698     0.88700
O14         O  0.87733420  0.07734006  0.43327613    -0.53300
O15         O  0.95323690  0.11869422  0.44980600    -0.56600
In16       In  0.09705014  0.13157733  0.99591702     1.36900
C17         C  0.08659856  0.22531060  0.50014881     0.81100
O18         O  0.14097844  0.14547497  0.41999524    -0.57300
O19         O  0.12033527  0.07514114  0.42943494    -0.48200
C20         C  0.14416144  0.10233102  0.08997032     0.73800
O21         O  0.14777000  0.14138845  0.06137654    -0.43100
C22         C  0.01867442  0.11391481  0.99685210     0.78500
O23         O  0.08987897  0.19926828  0.04812588    -0.54900
O24         O  0.03872311  0.11769185  0.44747624    -0.45000
O25         O  0.08638213  0.20340370  0.44990413    -0.51400
C26         C  0.14190724  0.10375458  0.39993093     0.88700
O27         O  0.11746896  0.07652462  0.06903359    -0.53300
O28         O  0.03936850  0.11497975  0.04554133    -0.56600
C29         C  0.19776184  0.43249047  0.25331019     0.01100
C30         C  0.77151233  0.42930791  0.26161620     0.01100
In31       In  0.88682931  0.37112127  0.01234109     1.36900
C32         C  0.89725600  0.27751006  0.50770547     0.81100
O33         O  0.83723585  0.35971132  0.44551924    -0.57300
O34         O  0.86457268  0.42664493  0.44107785    -0.48200
C35         C  0.84174686  0.39816703  0.10856472     0.73800
O36         O  0.84387832  0.35620522  0.08927657    -0.43100
C37         C  0.96518122  0.38947359  0.01131356     0.78500
O38         O  0.89710247  0.29917322  0.05777010    -0.54900
O39         O  0.94410045  0.38983623  0.46314090    -0.45000
O40         O  0.89437196  0.30374033  0.45963642    -0.51400
C41         C  0.83929306  0.39969267  0.41859012     0.88700
O42         O  0.86225036  0.42738332  0.07820183    -0.53300
O43         O  0.94548143  0.38399950  0.06072753    -0.56600
In44       In  0.08950755  0.37039956  0.00576529     1.36900
C45         C  0.08507284  0.27705782  0.00212392     0.81100
O46         O  0.13607815  0.35555271  0.07937173    -0.57300
O47         O  0.10861809  0.42602680  0.07206849    -0.48200
C48         C  0.13351382  0.39796202  0.40999475     0.73800
O49         O  0.13840643  0.35738834  0.43566939    -0.43100
C50         C  0.00945648  0.38948468  0.51021531     0.78500
O51         O  0.08300165  0.30326345  0.45420260    -0.54900
O52         O  0.03083112  0.38372344  0.05793808    -0.45000
O53         O  0.08775510  0.29873104  0.05224341    -0.51400
C54         C  0.13325785  0.39706299  0.10026767     0.88700
O55         O  0.10682925  0.42576103  0.43441224    -0.53300
O56         O  0.02933601  0.39026172  0.46038332    -0.56600
C57         C  0.27517575  0.18954780  0.24875359     0.01100
C58         C  0.70440171  0.17582502  0.23758369     0.01100
In59       In  0.59401956  0.11985717  0.98977044     1.36900
C60         C  0.58885004  0.02652923  0.99492503     0.81100
O61         O  0.63843404  0.09937938  0.06494649    -0.57300
O62         O  0.61613178  0.17196934  0.05844885    -0.48200
C63         C  0.63706421  0.15059328  0.39400347     0.73800
O64         O  0.64485103  0.11128614  0.42167273    -0.43100
C65         C  0.51425750  0.14181101  0.48750982     0.78500
O66         O  0.59894529  0.04834075  0.44632514    -0.54900
O67         O  0.53607595  0.15093794  0.03301844    -0.45000
O68         O  0.57924354  0.05259484  0.04004644    -0.51400
C69         C  0.63832902  0.14046663  0.08674274     0.88700
O70         O  0.60766548  0.17562941  0.41604514    -0.53300
O71         O  0.53361375  0.12519291  0.44167276    -0.56600
In72       In  0.39061781  0.13092843  0.99894934     1.36900
C73         C  0.39781193  0.03709406  0.49933065     0.81100
O74         O  0.33656252  0.12396125  0.43910824    -0.57300
O75         O  0.37272810  0.18331444  0.42150053    -0.48200
C76         C  0.34752816  0.16017415  0.09689014     0.73800
O77         O  0.35322164  0.11702111  0.08315147    -0.43100
C78         C  0.46980223  0.14467729  0.98963077     0.78500
O79         O  0.40676113  0.06048649  0.04588768    -0.54900
O80         O  0.44881462  0.13195004  0.44514706    -0.45000
O81         O  0.38639309  0.06160918  0.45239631    -0.51400
C82         C  0.34299138  0.15996815  0.40560483     0.88700
O83         O  0.36436634  0.18934835  0.06105164    -0.53300
O84         O  0.44969979  0.15472098  0.03783996    -0.56600
C85         C  0.28607715  0.33024996  0.25568368     0.01100
C86         C  0.70713712  0.31423729  0.26269865     0.01100
In87       In  0.59589681  0.38063028  0.00952992     1.36900
C88         C  0.58975124  0.47471216  0.49963367     0.81100
O89         O  0.65094816  0.38027092  0.44946443    -0.57300
O90         O  0.60902822  0.32641034  0.43598714    -0.48200
C91         C  0.63734706  0.35128706  0.10963336     0.73800
O92         O  0.63498529  0.39406255  0.09070411    -0.43100
C93         C  0.51704392  0.36783094  0.00354094     0.78500
O94         O  0.57987384  0.45257064  0.04849962    -0.54900
O95         O  0.53786743  0.37921676  0.45700795    -0.45000
O96         O  0.60210122  0.44880192  0.45581843    -0.51400
C97         C  0.64096005  0.34543912  0.41843916     0.88700
O98         O  0.61835505  0.32280851  0.07766720    -0.53300
O99         O  0.53712546  0.35898155  0.05240847    -0.56600
In100      In  0.39349743  0.39210663  0.00364755     1.36900
C101        C  0.39849910  0.48541770  0.00030686     0.81100
O102        O  0.35147939  0.40977528  0.08177769    -0.57300
O103        O  0.37201013  0.33693554  0.07161449    -0.48200
C104        C  0.34936833  0.36355481  0.41074210     0.73800
O105        O  0.34003865  0.40051165  0.44066773    -0.43100
C106        C  0.47284107  0.37025761  0.50185002     0.78500
O107        O  0.38851675  0.46248239  0.45382676    -0.54900
O108        O  0.45125438  0.36254722  0.04903348    -0.45000
O109        O  0.40745503  0.46045717  0.04806392    -0.51400
C110        C  0.35103185  0.36745913  0.10193644     0.88700
O111        O  0.38063620  0.33952041  0.42955236    -0.53300
O112        O  0.45339724  0.38505845  0.45450650    -0.56600
C113        C  0.68268156  0.32273733  0.31854127    -0.09700
C114        C  0.66346448  0.33064701  0.36497181    -0.11300
C115        C  0.66041673  0.33664875  0.16358721    -0.09700
C116        C  0.68102092  0.32659040  0.20854169    -0.11300
C117        C  0.30767581  0.34283467  0.31193072    -0.09700
C118        C  0.32653775  0.35115481  0.35775862    -0.11300
C119        C  0.30901473  0.34600881  0.20145446    -0.09700
C120        C  0.32828684  0.35548887  0.15589103    -0.11300
C121        C  0.70996107  0.22890488  0.22358979    -0.12900
C122        C  0.72115847  0.26077577  0.26568989    -0.28100
H123        H  0.69838276  0.24287970  0.17932967     0.16100
H124        H  0.73477863  0.24694828  0.30874931     0.16700
C125        C  0.68122851  0.15866633  0.18528692    -0.09700
C126        C  0.66165166  0.15004747  0.14034410    -0.11300
C127        C  0.65970241  0.16436513  0.34023277    -0.09700
C128        C  0.67969224  0.17077898  0.29416481    -0.11300
C129        C  0.28966635  0.27574741  0.25391262    -0.12900
C130        C  0.26111361  0.24297713  0.24975471    -0.28100
H131        H  0.32110835  0.26137548  0.25545717     0.16100
H132        H  0.22909913  0.25403593  0.24769330     0.16700
C133        C  0.32313129  0.17413161  0.14948268    -0.09700
C134        C  0.30167031  0.18154802  0.19412120    -0.11300
C135        C  0.29900635  0.17860121  0.30543896    -0.09700
C136        C  0.31894655  0.17167567  0.35174290    -0.11300
C137        C  0.73625749  0.39635104  0.26190275    -0.12900
C138        C  0.74209258  0.34757427  0.26258216    -0.28100
H139        H  0.70545126  0.41238442  0.26133245     0.16100
H140        H  0.77292882  0.33160881  0.26287393     0.16700
C141        C  0.79549060  0.41943286  0.31845347    -0.10500
C142        C  0.81532837  0.41222206  0.36483634    -0.11300
C143        C  0.79718723  0.41856433  0.20705252    -0.09700
C144        C  0.81780886  0.41084045  0.16179811    -0.11300
C145        C  0.23944234  0.40559280  0.25419938    -0.12900
C146        C  0.24413058  0.35658157  0.25490284    -0.28100
H147        H  0.26636354  0.42597306  0.25414580     0.16100
H148        H  0.21732110  0.33598411  0.25471771     0.16700
C149        C  0.15612767  0.40955707  0.15322063    -0.09700
C150        C  0.17524894  0.41844263  0.19859426    -0.11300
C151        C  0.17524284  0.41916231  0.30947759    -0.09700
C152        C  0.15623941  0.41053381  0.35585218    -0.11300
C153        C  0.74649021  0.09692847  0.25075529    -0.12900
C154        C  0.74417035  0.14570150  0.24405624    -0.28100
H155        H  0.71868652  0.07807389  0.25265288     0.16100
H156        H  0.77218976  0.16428220  0.24160112     0.16700
C157        C  0.75907321  0.48307601  0.25878771    -0.12900
C158        C  0.78903772  0.01436996  0.25830546    -0.28100
H159        H  0.72733126  0.49548789  0.25666815     0.16100
H160        H  0.82003951  0.99856080  0.26051092     0.16700
C161        C  0.81095894  0.08007870  0.19796507    -0.09700
C162        C  0.82981178  0.08858952  0.15149757    -0.11300
C163        C  0.82840303  0.09281263  0.35410724    -0.09700
C164        C  0.80964074  0.08351882  0.30859901    -0.11300
C165        C  0.24064776  0.15540866  0.24650565    -0.12900
C166        C  0.24701196  0.10661128  0.24696503    -0.28100
H167        H  0.20964389  0.17075496  0.24527856     0.16100
H168        H  0.27795428  0.09110205  0.24836307     0.16700
C169        C  0.19543026  0.48710282  0.25089359    -0.12900
C170        C  0.22502944  0.01914042  0.24940208    -0.28100
H171        H  0.16424940  0.50232996  0.25007635     0.16100
H172        H  0.25688865  0.00736013  0.25021327     0.16700
C173        C  0.16801414  0.08966805  0.14384473    -0.09700
C174        C  0.18794166  0.08251674  0.19017867    -0.11300
C175        C  0.16571196  0.09075126  0.34673306    -0.09700
C176        C  0.18634482  0.08311605  0.30148878    -0.11300
C177        C  0.21202248  0.07287994  0.74690536     0.01100
C178        C  0.78737549  0.06869619  0.75384197     0.01100
In179      In  0.89449196  0.13230235  0.50158327     1.36900
C180        C  0.89852348  0.22574556  0.50531174     0.81100
O181        O  0.84506163  0.14260553  0.57145951    -0.57300
O182        O  0.87937100  0.07588389  0.57284335    -0.48200
C183        C  0.85085630  0.10530028  0.90711712     0.73800
O184        O  0.84597672  0.14588357  0.93044603    -0.43100
C185        C  0.97434873  0.11390394  0.99799047     0.78500
O186        O  0.89658081  0.20397665  0.95475274    -0.54900
O187        O  0.95445773  0.11428126  0.54792599    -0.45000
O188        O  0.89930538  0.19961954  0.55352656    -0.51400
C189        C  0.85165123  0.10226388  0.59716916     0.88700
O190        O  0.87736874  0.07733818  0.93293515    -0.53300
O191        O  0.95318788  0.11873860  0.94965107    -0.56600
In192      In  0.09712241  0.13160403  0.49590099     1.36900
C193        C  0.08646601  0.22528663  0.99994794     0.81100
O194        O  0.14109781  0.14538276  0.92024404    -0.57300
O195        O  0.12014647  0.07517133  0.92928327    -0.48200
C196        C  0.14423508  0.10224392  0.58984715     0.73800
O197        O  0.14807263  0.14114966  0.56099922    -0.43100
C198        C  0.01874193  0.11397849  0.49695525     0.78500
O199        O  0.09035206  0.19925874  0.54825383    -0.54900
O200        O  0.03865040  0.11784424  0.94740451    -0.45000
O201        O  0.08658803  0.20334196  0.94971271    -0.51400
C202        C  0.14186004  0.10373566  0.89996045     0.88700
O203        O  0.11732507  0.07661475  0.56918322    -0.53300
O204        O  0.03943248  0.11524274  0.54562253    -0.56600
C205        C  0.19789223  0.43253605  0.75329320     0.01100
C206        C  0.77144682  0.42931702  0.76177458     0.01100
In207      In  0.88671735  0.37115107  0.51252607     1.36900
C208        C  0.89731890  0.27746799  0.00734247     0.81100
O209        O  0.83710547  0.35984287  0.94574290    -0.57300
O210        O  0.86481232  0.42654661  0.94076806    -0.48200
C211        C  0.84160200  0.39819586  0.60867694     0.73800
O212        O  0.84351311  0.35631029  0.58912883    -0.43100
C213        C  0.96509240  0.38942176  0.51165342     0.78500
O214        O  0.89675679  0.29923234  0.55813199    -0.54900
O215        O  0.94419741  0.38968138  0.96280786    -0.45000
O216        O  0.89419484  0.30372104  0.95931588    -0.51400
C217        C  0.83932237  0.39971586  0.91859197     0.88700
O218        O  0.86230890  0.42735287  0.57856836    -0.53300
O219        O  0.94539081  0.38378842  0.56103156    -0.56600
In220      In  0.08944866  0.37043990  0.50596377     1.36900
C221        C  0.08516254  0.27708006  0.50237505     0.81100
O222        O  0.13615102  0.35570385  0.57938294    -0.57300
O223        O  0.10846695  0.42608187  0.57233117    -0.48200
C224        C  0.13365839  0.39793392  0.90993543     0.73800
O225        O  0.13862675  0.35740584  0.93572319    -0.43100
C226        C  0.00954090  0.38955630  0.00987489     0.78500
O227        O  0.08329861  0.30321016  0.95390774    -0.54900
O228        O  0.03076625  0.38355670  0.55824899    -0.45000
O229        O  0.08815723  0.29872771  0.55245735    -0.51400
C230        C  0.13323323  0.39717768  0.60038209     0.88700
O231        O  0.10685621  0.42567635  0.93417605    -0.53300
O232        O  0.02943514  0.39022083  0.96004948    -0.56600
C233        C  0.27511743  0.18952176  0.74883901     0.01100
C234        C  0.70431322  0.17590132  0.73754661     0.01100
In235      In  0.59396034  0.11985775  0.48977820     1.36900
C236        C  0.58873612  0.02653226  0.49511447     0.81100
O237        O  0.63858868  0.09954472  0.56469216    -0.57300
O238        O  0.61580971  0.17198603  0.55863038    -0.48200
C239        C  0.63706315  0.15065316  0.89400784     0.73800
O240        O  0.64482751  0.11128877  0.92155267    -0.43100
C241        C  0.51432356  0.14184631  0.98742863     0.78500
O242        O  0.59940382  0.04834427  0.94632953    -0.54900
O243        O  0.53602655  0.15100064  0.53304042    -0.45000
O244        O  0.57951209  0.05260302  0.54038535    -0.51400
C245        C  0.63822611  0.14057729  0.58671266     0.88700
O246        O  0.60771615  0.17570843  0.91616711    -0.53300
O247        O  0.53369626  0.12532028  0.94155047    -0.56600
In248      In  0.39053693  0.13102073  0.49904096     1.36900
C249        C  0.39796617  0.03700634  0.99919211     0.81100
O250        O  0.33663511  0.12378767  0.93905630    -0.57300
O251        O  0.37272720  0.18320941  0.92145465    -0.48200
C252        C  0.34747210  0.16021432  0.59699912     0.73800
O253        O  0.35326812  0.11705806  0.58333983    -0.43100
C254        C  0.46973643  0.14466215  0.48970804     0.78500
O255        O  0.40670113  0.06058010  0.54597678    -0.54900
O256        O  0.44885835  0.13222569  0.94494723    -0.45000
O257        O  0.38664239  0.06152456  0.95221348    -0.51400
C258        C  0.34300795  0.15982700  0.90557862     0.88700
O259        O  0.36420559  0.18942164  0.56108356    -0.53300
O260        O  0.44960831  0.15501418  0.53779190    -0.56600
C261        C  0.28614596  0.33020730  0.75566893     0.01100
C262        C  0.70706856  0.31427666  0.76277198     0.01100
In263      In  0.59600276  0.38070219  0.50944175     1.36900
C264        C  0.58966082  0.47465173  0.99970411     0.81100
O265        O  0.65090745  0.38009775  0.94967978    -0.57300
O266        O  0.60886243  0.32641731  0.93595228    -0.48200
C267        C  0.63745757  0.35135932  0.60953925     0.73800
O268        O  0.63514746  0.39412152  0.59055968    -0.43100
C269        C  0.51714488  0.36786521  0.50346507     0.78500
O270        O  0.57989187  0.45262039  0.54838118    -0.54900
O271        O  0.53775154  0.37932319  0.95713417    -0.45000
O272        O  0.60193598  0.44872516  0.95586165    -0.51400
C273        C  0.64085492  0.34536651  0.91852007     0.88700
O274        O  0.61844059  0.32289015  0.57759901    -0.53300
O275        O  0.53721318  0.35919287  0.55238303    -0.56600
In276      In  0.39357480  0.39203989  0.50357859     1.36900
C277        C  0.39859066  0.48534198  0.50030427     0.81100
O278        O  0.35168467  0.40966772  0.58187755    -0.57300
O279        O  0.37199060  0.33678955  0.57138141    -0.48200
C280        C  0.34934853  0.36351222  0.91081532     0.73800
O281        O  0.34001335  0.40051217  0.94064629    -0.43100
C282        C  0.47274437  0.37026945  0.00193660     0.78500
O283        O  0.38836740  0.46254699  0.95387193    -0.54900
O284        O  0.45135159  0.36250125  0.54893739    -0.45000
O285        O  0.40745172  0.46037749  0.54809322    -0.51400
C286        C  0.35113024  0.36731715  0.60187468     0.88700
O287        O  0.38058611  0.33947596  0.92973627    -0.53300
O288        O  0.45331028  0.38508666  0.95458911    -0.56600
C289        C  0.68257316  0.32274241  0.81858633    -0.09700
C290        C  0.66335232  0.33061265  0.86502587    -0.11300
C291        C  0.66047264  0.33672798  0.66354480    -0.09700
C292        C  0.68100795  0.32665882  0.70856596    -0.11300
C293        C  0.30773586  0.34278597  0.81192820    -0.09700
C294        C  0.32656604  0.35108642  0.85779527    -0.11300
C295        C  0.30912010  0.34589169  0.70142783    -0.09700
C296        C  0.32839774  0.35532541  0.65584555    -0.11300
C297        C  0.70992708  0.22897108  0.72357702    -0.12900
C298        C  0.72109574  0.26081940  0.76572644    -0.28100
H299        H  0.69838194  0.24296609  0.67930470     0.16100
H300        H  0.73468229  0.24696921  0.80880086     0.16700
C301        C  0.68109497  0.15879616  0.68527152    -0.09700
C302        C  0.66151278  0.15019217  0.64033185    -0.11300
C303        C  0.65966590  0.16446370  0.84023343    -0.09700
C304        C  0.67962744  0.17087603  0.79414399    -0.11300
C305        C  0.28967581  0.27570035  0.75397273    -0.12900
C306        C  0.26109144  0.24296247  0.74984704    -0.28100
H307        H  0.32110587  0.26128987  0.75553975     0.16100
H308        H  0.22908367  0.25405423  0.74777318     0.16700
C309        C  0.32307026  0.17413872  0.64958275    -0.09700
C310        C  0.30160588  0.18152691  0.69421461    -0.11300
C311        C  0.29894846  0.17853279  0.80550930    -0.09700
C312        C  0.31891481  0.17155187  0.85177497    -0.11300
C313        C  0.73618268  0.39638435  0.76207379    -0.12900
C314        C  0.74201821  0.34760900  0.76274691    -0.28100
H315        H  0.70537952  0.41242713  0.76148488     0.16100
H316        H  0.77285396  0.33164213  0.76306144     0.16700
C317        C  0.79543063  0.41942855  0.81858146    -0.10500
C318        C  0.81530587  0.41224103  0.86491682    -0.11300
C319        C  0.79710037  0.41855863  0.70720896    -0.09700
C320        C  0.81769611  0.41084450  0.66193524    -0.11300
C321        C  0.23956515  0.40561230  0.75410930    -0.12900
C322        C  0.24422144  0.35659610  0.75483759    -0.28100
H323        H  0.26649819  0.42597415  0.75403489     0.16100
H324        H  0.21739403  0.33602788  0.75467644     0.16700
C325        C  0.15614556  0.40968356  0.65328324    -0.09700
C326        C  0.17532788  0.41852998  0.69861011    -0.11300
C327        C  0.17541118  0.41918075  0.80947625    -0.09700
C328        C  0.15641656  0.41051710  0.85584136    -0.11300
C329        C  0.74633621  0.09694061  0.75066511    -0.12900
C330        C  0.74405241  0.14571691  0.74396821    -0.28100
H331        H  0.71852112  0.07810462  0.75258917     0.16100
H332        H  0.77208967  0.16426308  0.74149010     0.16700
C333        C  0.75906092  0.48308779  0.75895290    -0.12900
C334        C  0.78888831  0.01435943  0.75822033    -0.28100
H335        H  0.72732979  0.49553779  0.75679318     0.16100
H336        H  0.81989735  0.99857079  0.76042413     0.16700
C337        C  0.81077792  0.08004961  0.69782722    -0.09700
C338        C  0.82965255  0.08855902  0.65138099    -0.11300
C339        C  0.82826819  0.09276378  0.85398616    -0.09700
C340        C  0.80949843  0.08350647  0.80846799    -0.11300
C341        C  0.24058282  0.15539675  0.74655802    -0.12900
C342        C  0.24694264  0.10659692  0.74700363    -0.28100
H343        H  0.20958269  0.17075243  0.74531596     0.16100
H344        H  0.27788266  0.09107973  0.74842323     0.16700
C345        C  0.19555554  0.48714830  0.75092798    -0.12900
C346        C  0.22492728  0.01913232  0.74943663    -0.28100
H347        H  0.16437260  0.50237109  0.75018178     0.16100
H348        H  0.25678174  0.00733334  0.75029126     0.16700
C349        C  0.16805037  0.08959305  0.64374633    -0.09700
C350        C  0.18792556  0.08249091  0.69013252    -0.11300
C351        C  0.16562566  0.09076476  0.84671010    -0.09700
C352        C  0.18624098  0.08313551  0.80144664    -0.11300
C353        C  0.21197871  0.57288103  0.24704762     0.01100
C354        C  0.78740365  0.56873642  0.25375774     0.01100
In355      In  0.89447880  0.63230071  0.00145063     1.36900
C356        C  0.89855327  0.72572403  0.00517032     0.81100
O357        O  0.84507424  0.64263632  0.07135942    -0.57300
O358        O  0.87933906  0.57588426  0.07269305    -0.48200
C359        C  0.85085738  0.60531001  0.40708387     0.73800
O360        O  0.84597011  0.64588761  0.43042903    -0.43100
C361        C  0.97431844  0.61390550  0.49800886     0.78500
O362        O  0.89643993  0.70398532  0.45486170    -0.54900
O363        O  0.95441995  0.61430243  0.04783414    -0.45000
O364        O  0.89934746  0.69959614  0.05338202    -0.51400
C365        C  0.85165101  0.60228771  0.09705624     0.88700
O366        O  0.87736584  0.57734378  0.43290525    -0.53300
O367        O  0.95316331  0.61878814  0.44966810    -0.56600
In368      In  0.09706352  0.63167269  0.99600123     1.36900
C369        C  0.08637970  0.72536019  0.49992392     0.81100
O370        O  0.14126160  0.64531522  0.42061228    -0.57300
O371        O  0.11997740  0.57524479  0.42929224    -0.48200
C372        C  0.14412478  0.60233513  0.09004542     0.73800
O373        O  0.14798543  0.64122542  0.06117065    -0.43100
C374        C  0.01871334  0.61395609  0.99692611     0.78500
O375        O  0.09016144  0.69936411  0.04827787    -0.54900
O376        O  0.03861449  0.61799130  0.44745827    -0.45000
O377        O  0.08663705  0.70337514  0.44971242    -0.51400
C378        C  0.14186243  0.60372789  0.40015724     0.88700
O379        O  0.11720646  0.57671954  0.06937838    -0.53300
O380        O  0.03937453  0.61521133  0.04562518    -0.56600
C381        C  0.19790446  0.93250736  0.25319473     0.01100
C382        C  0.77150301  0.92931779  0.26177678     0.01100
In383      In  0.88674769  0.87109782  0.01247952     1.36900
C384        C  0.89727209  0.77743227  0.50750061     0.81100
O385        O  0.83707308  0.85977521  0.44581491    -0.57300
O386        O  0.86474360  0.92650180  0.44092164    -0.48200
C387        C  0.84164870  0.89811288  0.10867750     0.73800
O388        O  0.84369941  0.85617909  0.08928831    -0.43100
C389        C  0.96509942  0.88948861  0.01153137     0.78500
O390        O  0.89679988  0.79917682  0.05803169    -0.54900
O391        O  0.94410328  0.88958383  0.46283275    -0.45000
O392        O  0.89412550  0.80368517  0.45947899    -0.51400
C393        C  0.83928713  0.89965841  0.41868545     0.88700
O394        O  0.86221651  0.92731471  0.07840367    -0.53300
O395        O  0.94542076  0.88383595  0.06092619    -0.56600
In396      In  0.08943574  0.87052534  0.00582063     1.36900
C397        C  0.08503520  0.77716631  0.00231723     0.81100
O398        O  0.13613552  0.85572436  0.07923206    -0.57300
O399        O  0.10850266  0.92612928  0.07221208    -0.48200
C400        C  0.13366071  0.89798614  0.40986531     0.73800
O401        O  0.13871695  0.85753768  0.43584652    -0.43100
C402        C  0.00946777  0.88963281  0.50978065     0.78500
O403        O  0.08335812  0.80326692  0.45379964    -0.54900
O404        O  0.03077564  0.88376110  0.05809642    -0.45000
O405        O  0.08803477  0.79884233  0.05237744    -0.51400
C406        C  0.13324407  0.89719132  0.10025823     0.88700
O407        O  0.10673054  0.92568031  0.43388724    -0.53300
O408        O  0.02932738  0.89007334  0.45991478    -0.56600
C409        C  0.27509794  0.68952930  0.24897840     0.01100
C410        C  0.70429735  0.67591914  0.23749096     0.01100
In411      In  0.59397029  0.61978317  0.98968845     1.36900
C412        C  0.58875599  0.52645859  0.99504547     0.81100
O413        O  0.63851500  0.59950501  0.06473811    -0.57300
O414        O  0.61587362  0.67198542  0.05840523    -0.48200
C415        C  0.63707279  0.65055358  0.39395614     0.73800
O416        O  0.64487796  0.61123150  0.42158735    -0.43100
C417        C  0.51434355  0.64186481  0.48748989     0.78500
O418        O  0.59919854  0.54832539  0.44630113    -0.54900
O419        O  0.53608141  0.65100257  0.03298162    -0.45000
O420        O  0.57954596  0.55253184  0.04031822    -0.51400
C421        C  0.63821848  0.64057985  0.08662139     0.88700
O422        O  0.60768797  0.67558369  0.41604212    -0.53300
O423        O  0.53367746  0.62521116  0.44165452    -0.56600
In424      In  0.39055886  0.63114586  0.99918139     1.36900
C425        C  0.39790046  0.53712359  0.49945910     0.81100
O426        O  0.33676710  0.62376101  0.43904774    -0.57300
O427        O  0.37264176  0.68341225  0.42172695    -0.48200
C428        C  0.34749636  0.66029726  0.09716885     0.73800
O429        O  0.35348823  0.61713486  0.08366902    -0.43100
C430        C  0.46976059  0.64475170  0.98973195     0.78500
O431        O  0.40677611  0.56068696  0.04606046    -0.54900
O432        O  0.44886867  0.63221164  0.44510253    -0.45000
O433        O  0.38652933  0.56163586  0.45249908    -0.51400
C434        C  0.34302649  0.65990854  0.40570985     0.88700
O435        O  0.36404597  0.68954448  0.06109191    -0.53300
O436        O  0.44967209  0.65508250  0.03785877    -0.56600
C437        C  0.28616159  0.83021546  0.25556437     0.01100
C438        C  0.70705470  0.81432053  0.26280268     0.01100
In439      In  0.59597969  0.88069451  0.00944323     1.36900
C440        C  0.58960777  0.97472199  0.49974567     0.81100
O441        O  0.65078464  0.88032111  0.44955984    -0.57300
O442        O  0.60891195  0.82641524  0.43606804    -0.48200
C443        C  0.63743206  0.85138738  0.10957200     0.73800
O444        O  0.63503313  0.89416304  0.09065404    -0.43100
C445        C  0.51714143  0.86777261  0.00342558     0.78500
O446        O  0.57976438  0.95264002  0.04824232    -0.54900
O447        O  0.53772760  0.87929383  0.45710551    -0.45000
O448        O  0.60180742  0.94879969  0.45585575    -0.51400
C449        C  0.64082353  0.84548479  0.41851895     0.88700
O450        O  0.61850063  0.82288515  0.07756118    -0.53300
O451        O  0.53719945  0.85909116  0.05235222    -0.56600
In452      In  0.39359454  0.89195360  0.00340995     1.36900
C453        C  0.39866909  0.98522997  0.00003863     0.81100
O454        O  0.35190108  0.90968132  0.08192327    -0.57300
O455        O  0.37178093  0.83671005  0.07101580    -0.48200
C456        C  0.34934987  0.86353081  0.41070684     0.73800
O457        O  0.33999635  0.90048202  0.44063346    -0.43100
C458        C  0.47273414  0.87015942  0.50185729     0.78500
O459        O  0.38843921  0.96243602  0.45372600    -0.54900
O460        O  0.45132702  0.86227820  0.04878832    -0.45000
O461        O  0.40740639  0.96029497  0.04789982    -0.51400
C462        C  0.35112498  0.86729373  0.10171265     0.88700
O463        O  0.38060447  0.83948970  0.42955092    -0.53300
O464        O  0.45332000  0.88503554  0.45452419    -0.56600
C465        C  0.68256369  0.82282174  0.31861493    -0.09700
C466        C  0.66333565  0.83072448  0.36503999    -0.11300
C467        C  0.66045462  0.83677660  0.16358001    -0.09700
C468        C  0.68099527  0.82671331  0.20859824    -0.11300
C469        C  0.30775760  0.84283770  0.31179339    -0.09700
C470        C  0.32657139  0.85115205  0.35766740    -0.11300
C471        C  0.30911801  0.84587381  0.20128304    -0.09700
C472        C  0.32838126  0.85531465  0.15568449    -0.11300
C473        C  0.70988920  0.72900856  0.22358905    -0.12900
C474        C  0.72104978  0.76084730  0.26576345    -0.28100
H475        H  0.69835065  0.74302060  0.17932160     0.16100
H476        H  0.73462537  0.74698570  0.30883848     0.16700
C477        C  0.68107913  0.65884154  0.18518819    -0.09700
C478        C  0.66149815  0.65024003  0.14024011    -0.11300
C479        C  0.65967365  0.66436188  0.34017762    -0.09700
C480        C  0.67962102  0.67083001  0.29408754    -0.11300
C481        C  0.28968291  0.77570767  0.25395288    -0.12900
C482        C  0.26108572  0.74297387  0.24992771    -0.28100
H483        H  0.32111224  0.76129210  0.25550995     0.16100
H484        H  0.22907891  0.75407143  0.24786877     0.16700
C485        C  0.32307055  0.67417700  0.14974195    -0.09700
C486        C  0.30158949  0.68151933  0.19436454    -0.11300
C487        C  0.29893241  0.67857329  0.30565780    -0.09700
C488        C  0.31891789  0.67162488  0.35191367    -0.11300
C489        C  0.73621932  0.89640822  0.26207805    -0.12900
C490        C  0.74202580  0.84762819  0.26276341    -0.28100
H491        H  0.70542260  0.91247380  0.26148634     0.16100
H492        H  0.77285370  0.83163769  0.26308163     0.16700
C493        C  0.79547472  0.91941087  0.31859514    -0.10500
C494        C  0.81531069  0.91218863  0.36496584    -0.11300
C495        C  0.79715283  0.91853374  0.20720989    -0.09700
C496        C  0.81773990  0.91077714  0.16193447    -0.11300
C497        C  0.23957855  0.90560056  0.25399136    -0.12900
C498        C  0.24423729  0.85658927  0.25474603    -0.28100
H499        H  0.26650934  0.92596597  0.25387762     0.16100
H500        H  0.21741180  0.83601846  0.25462678     0.16700
C501        C  0.15615331  0.90965438  0.15318624    -0.09700
C502        C  0.17533056  0.91848567  0.19852600    -0.11300
C503        C  0.17544222  0.91916788  0.30940541    -0.09700
C504        C  0.15645009  0.91052684  0.35578212    -0.11300
C505        C  0.74635398  0.59696689  0.25056632    -0.12900
C506        C  0.74404999  0.64574672  0.24388121    -0.28100
H507        H  0.71854675  0.57811557  0.25247825     0.16100
H508        H  0.77207846  0.66430762  0.24141645     0.16700
C509        C  0.75913327  0.98309729  0.25895607    -0.12900
C510        C  0.78893800  0.51439607  0.25811321    -0.28100
H511        H  0.72740261  0.99555127  0.25682952     0.16100
H512        H  0.81995287  0.49862399  0.26030979     0.16700
C513        C  0.81080964  0.58010505  0.19775452    -0.09700
C514        C  0.82967447  0.58860098  0.15129547    -0.11300
C515        C  0.82827979  0.59278418  0.35393357    -0.09700
C516        C  0.80951520  0.58354203  0.30840148    -0.11300
C517        C  0.24055431  0.65540590  0.24671498    -0.12900
C518        C  0.24690336  0.60660314  0.24713722    -0.28100
H519        H  0.20955578  0.67076820  0.24549108     0.16100
H520        H  0.27784179  0.59108320  0.24852853     0.16700
C521        C  0.19556896  0.98711342  0.25079893    -0.12900
C522        C  0.22489682  0.51912836  0.24953817    -0.28100
H523        H  0.16438646  0.00233522  0.25003000     0.16100
H524        H  0.25675414  0.50734214  0.25038479     0.16700
C525        C  0.16794202  0.58966968  0.14395014    -0.09700
C526        C  0.18784332  0.58252392  0.19030916    -0.11300
C527        C  0.16562477  0.59074170  0.34690729    -0.09700
C528        C  0.18622488  0.58311057  0.30162708    -0.11300
C529        C  0.21208048  0.57292989  0.74704661     0.01100
C530        C  0.78748354  0.56868176  0.75389465     0.01100
In531      In  0.89439923  0.63222349  0.50143210     1.36900
C532        C  0.89848884  0.72566921  0.50508126     0.81100
O533        O  0.84518949  0.64263031  0.57163610    -0.57300
O534        O  0.87920262  0.57571604  0.57252266    -0.48200
C535        C  0.85096776  0.60540602  0.90709398     0.73800
O536        O  0.84627409  0.64610702  0.93014207    -0.43100
C537        C  0.97439089  0.61394700  0.99805935     0.78500
O538        O  0.89681023  0.70403070  0.95491535    -0.54900
O539        O  0.95433855  0.61403500  0.54777413    -0.45000
O540        O  0.89956981  0.69952282  0.55327903    -0.51400
C541        C  0.85166561  0.60219219  0.59712938     0.88700
O542        O  0.87728192  0.57733786  0.93318722    -0.53300
O543        O  0.95322944  0.61862204  0.94970778    -0.56600
In544      In  0.09700498  0.63163118  0.49604099     1.36900
C545        C  0.08644532  0.72538957  0.00014504     0.81100
O546        O  0.14108457  0.64550464  0.92029804    -0.57300
O547        O  0.12023916  0.57524994  0.92945996    -0.48200
C548        C  0.14408242  0.60242804  0.59017254     0.73800
O549        O  0.14760402  0.64154750  0.56168941    -0.43100
C550        C  0.01864258  0.61392658  0.49688868     0.78500
O551        O  0.08965706  0.69937094  0.54814378    -0.54900
O552        O  0.03871505  0.61770930  0.94747171    -0.45000
O553        O  0.08627981  0.70344810  0.94992424    -0.51400
C554        C  0.14192481  0.60382543  0.90010572     0.88700
O555        O  0.11748156  0.57655355  0.56911043    -0.53300
O556        O  0.03933635  0.61487493  0.54559357    -0.56600
C557        C  0.19775013  0.93252788  0.75315137     0.01100
C558        C  0.77142646  0.92928892  0.76170221     0.01100
In559      In  0.88676888  0.87107521  0.51247314     1.36900
C560        C  0.89730738  0.77747897  0.00758696     0.81100
O561        O  0.83724536  0.85959303  0.94551849    -0.57300
O562        O  0.86451156  0.92657070  0.94108882    -0.48200
C563        C  0.84166917  0.89811934  0.60867696     0.73800
O564        O  0.84382622  0.85614712  0.58942299    -0.43100
C565        C  0.96511129  0.88948896  0.51130199     0.78500
O566        O  0.89707596  0.79913229  0.55793362    -0.54900
O567        O  0.94409573  0.88984596  0.96303713    -0.45000
O568        O  0.89443802  0.80372415  0.95952983    -0.51400
C569        C  0.83924843  0.89959301  0.91861484     0.88700
O570        O  0.86215900  0.92733905  0.57829796    -0.53300
O571        O  0.94544237  0.88407401  0.56075956    -0.56600
In572      In  0.08943764  0.87050139  0.50564462     1.36900
C573        C  0.08499693  0.77714178  0.50204521     0.81100
O574        O  0.13581890  0.85560686  0.57948690    -0.57300
O575        O  0.10870794  0.92622806  0.57170501    -0.48200
C576        C  0.13352607  0.89799331  0.90985305     0.73800
O577        O  0.13834680  0.85739075  0.93547043    -0.43100
C578        C  0.00945815  0.88961467  0.01006306     0.78500
O579        O  0.08292684  0.80332390  0.95411808    -0.54900
O580        O  0.03079449  0.88407264  0.55783834    -0.45000
O581        O  0.08755852  0.79885077  0.55215904    -0.51400
C582        C  0.13317957  0.89719831  0.60013188     0.88700
O583        O  0.10690240  0.92584252  0.93432447    -0.53300
O584        O  0.02932822  0.89034554  0.96021925    -0.56600
C585        C  0.27516075  0.68959433  0.74888698     0.01100
C586        C  0.70441066  0.67584157  0.73752178     0.01100
In587      In  0.59402752  0.61982345  0.48975549     1.36900
C588        C  0.58884093  0.52651367  0.49500778     0.81100
O589        O  0.63842306  0.59940235  0.56496300    -0.57300
O590        O  0.61616415  0.67200755  0.55830510    -0.48200
C591        C  0.63709723  0.65051751  0.89393666     0.73800
O592        O  0.64494358  0.61125647  0.92169215    -0.43100
C593        C  0.51428023  0.64182952  0.98748172     0.78500
O594        O  0.59892617  0.54826322  0.94623172    -0.54900
O595        O  0.53612813  0.65103917  0.53300858    -0.45000
O596        O  0.57943536  0.55257380  0.54021769    -0.51400
C597        C  0.63833442  0.64051790  0.58667295     0.88700
O598        O  0.60762377  0.67548870  0.91586631    -0.53300
O599        O  0.53359820  0.62515783  0.94163940    -0.56600
In600      In  0.39063583  0.63105761  0.49911729     1.36900
C601        C  0.39777276  0.53720456  0.99946858     0.81100
O602        O  0.33666057  0.62397237  0.93913488    -0.57300
O603        O  0.37265412  0.68351268  0.92175337    -0.48200
C604        C  0.34753710  0.66029589  0.59704472     0.73800
O605        O  0.35336049  0.61713560  0.58342734    -0.43100
C606        C  0.46982585  0.64474700  0.48972218     0.78500
O607        O  0.40677925  0.56061542  0.54610695    -0.54900
O608        O  0.44879635  0.63211011  0.94518143    -0.45000
O609        O  0.38625907  0.56172956  0.95259077    -0.51400
C610        C  0.34299855  0.66007040  0.90574624     0.88700
O611        O  0.36425431  0.68949212  0.56109400    -0.53300
O612        O  0.44973593  0.65491734  0.53789916    -0.56600
C613        C  0.28604399  0.83028922  0.75558315     0.01100
C614        C  0.70707660  0.81422044  0.76269558     0.01100
In615      In  0.59584040  0.88068837  0.50953566     1.36900
C616        C  0.58975575  0.97472044  0.99955596     0.81100
O617        O  0.65092769  0.88018842  0.94947842    -0.57300
O618        O  0.60892851  0.82642277  0.93594039    -0.48200
C619        C  0.63729084  0.85129446  0.60962814     0.73800
O620        O  0.63488524  0.89408847  0.59077652    -0.43100
C621        C  0.51702045  0.86778442  0.50350195     0.78500
O622        O  0.57986821  0.95263086  0.54855956    -0.54900
O623        O  0.53786313  0.87920295  0.95700411    -0.45000
O624        O  0.60222563  0.94879142  0.95582769    -0.51400
C625        C  0.64088905  0.84539868  0.91841668     0.88700
O626        O  0.61834402  0.82282316  0.57758892    -0.53300
O627        O  0.53708393  0.85899751  0.55239627    -0.56600
In628      In  0.39351732  0.89201838  0.50355040     1.36900
C629        C  0.39854146  0.98531280  0.50017366     0.81100
O630        O  0.35178084  0.90976070  0.58198228    -0.57300
O631        O  0.37178056  0.83680655  0.57124757    -0.48200
C632        C  0.34931118  0.86359307  0.91062859     0.73800
O633        O  0.34005014  0.90057289  0.94054919    -0.43100
C634        C  0.47284328  0.87010978  0.00175425     0.78500
O635        O  0.38870096  0.96234972  0.95351780    -0.54900
O636        O  0.45123400  0.86234553  0.54891366    -0.45000
O637        O  0.40745509  0.96036557  0.54795710    -0.51400
C638        C  0.35106631  0.86739175  0.60185470     0.88700
O639        O  0.38054444  0.83948148  0.92941787    -0.53300
O640        O  0.45342862  0.88496377  0.95441253    -0.56600
C641        C  0.68260080  0.82269363  0.81851964    -0.09700
C642        C  0.66337655  0.83059589  0.86494271    -0.11300
C643        C  0.66036272  0.83662883  0.66357205    -0.09700
C644        C  0.68096823  0.82656286  0.70852421    -0.11300
C645        C  0.30760684  0.84292494  0.81182807    -0.09700
C646        C  0.32645354  0.85124556  0.85766272    -0.11300
C647        C  0.30901195  0.84599162  0.70135475    -0.09700
C648        C  0.32830743  0.85543227  0.65579982    -0.11300
C649        C  0.71000275  0.72891242  0.72354365    -0.12900
C650        C  0.72113516  0.76077574  0.76568933    -0.28100
H651        H  0.69847519  0.74289590  0.67925627     0.16100
H652        H  0.73471500  0.74694620  0.80877797     0.16700
C653        C  0.68121514  0.65872749  0.68522643    -0.09700
C654        C  0.66164001  0.65013406  0.64027408    -0.11300
C655        C  0.65974481  0.66431580  0.84018844    -0.09700
C656        C  0.67971782  0.67077902  0.79411708    -0.11300
C657        C  0.28963728  0.77579075  0.75392460    -0.12900
C658        C  0.26108662  0.74301641  0.74983432    -0.28100
H659        H  0.32107957  0.76142450  0.75550346     0.16100
H660        H  0.22907145  0.75406841  0.74775373     0.16700
C661        C  0.32312804  0.67422850  0.64962670    -0.09700
C662        C  0.30166022  0.68159964  0.69426474    -0.11300
C663        C  0.29899234  0.67867851  0.80558591    -0.09700
C664        C  0.31894269  0.67177551  0.85188791    -0.11300
C665        C  0.73616778  0.89634519  0.76196086    -0.12900
C666        C  0.74201357  0.84757255  0.76261700    -0.28100
H667        H  0.70535988  0.91237752  0.76138368     0.16100
H668        H  0.77285447  0.83161793  0.76291782     0.16700
C669        C  0.79539841  0.91938008  0.81853780    -0.10500
C670        C  0.81524574  0.91212770  0.86490269    -0.11300
C671        C  0.79709951  0.91854447  0.70713987    -0.09700
C672        C  0.81772107  0.91080403  0.66189232    -0.11300
C673        C  0.23942220  0.90562323  0.75399968    -0.12900
C674        C  0.24410043  0.85661550  0.75472589    -0.28100
H675        H  0.26634833  0.92599393  0.75394368     0.16100
H676        H  0.21728890  0.83602241  0.75454825     0.16700
C677        C  0.15606745  0.90970075  0.65306175    -0.09700
C678        C  0.17521453  0.91853229  0.69843155    -0.11300
C679        C  0.17524534  0.91918375  0.80932418    -0.09700
C680        C  0.15625686  0.91054735  0.85570969    -0.11300
C681        C  0.74645016  0.59692138  0.75068719    -0.12900
C682        C  0.74416109  0.64568991  0.74395387    -0.28100
H683        H  0.71863428  0.57808724  0.75262682     0.16100
H684        H  0.77219339  0.66424641  0.74146706     0.16700
C685        C  0.75900812  0.98305972  0.75889012    -0.12900
C686        C  0.78896683  0.51435553  0.75831261    -0.28100
H687        H  0.72727052  0.99548794  0.75675950     0.16100
H688        H  0.81996829  0.49854528  0.76054465     0.16700
C689        C  0.81088914  0.57999151  0.69787463    -0.09700
C690        C  0.82973609  0.58847882  0.65139823    -0.11300
C691        C  0.82837974  0.59283275  0.85398890    -0.09700
C692        C  0.80960753  0.58352232  0.80849930    -0.11300
C693        C  0.24063830  0.65544879  0.74663950    -0.12900
C694        C  0.24700238  0.60665230  0.74707915    -0.28100
H695        H  0.20963306  0.67079266  0.74542787     0.16100
H696        H  0.27794492  0.59114236  0.74845273     0.16700
C697        C  0.19544379  0.98713091  0.75078204    -0.12900
C698        C  0.22501316  0.51917993  0.74951941    -0.28100
H699        H  0.16426777  0.00237499  0.74997084     0.16100
H700        H  0.25687225  0.50739757  0.75029579     0.16700
C701        C  0.16794403  0.58975473  0.64404047    -0.09700
C702        C  0.18789509  0.58258001  0.69034999    -0.11300
C703        C  0.16574138  0.59082500  0.84691618    -0.09700
C704        C  0.18635945  0.58316466  0.80166200    -0.11300
loop_ 
_geom_bond_atom_site_label_1 
_geom_bond_atom_site_label_2 
_geom_bond_distance 
_geom_bond_site_symmetry_2 
_ccdc_geom_bond_type 
C1          C166   1.532       .  S
C1          C170   1.541       .  S
C1          C174   1.475       .  S
C1          C176   1.474       .  S
C2          C153   1.529       .  S
C2          C158   1.522       .  S
C2          C161   1.471       .  S
C2          C164   1.470       .  S
In3           O5   2.228       .  S
In3           O6   2.256       .  S
In3          O11   2.247       .  S
In3          O12   2.230       .  S
In3         O190   2.254   1_554  S
In3         O184   2.230   1_554  S
In3         O186   2.233   1_554  S
In3         O191   2.251   1_554  S
C4           O12   1.258       .  A
C4          O186   1.259   1_554  A
C4          C208   1.451       .  S
O5           C13   1.256       .  A
O6           C13   1.262       .  A
C7           O14   1.263       .  A
C7            O8   1.256       .  A
C7          C163   1.432       .  S
O8         In179   2.229       .  S
C9           O15   1.258       .  A
C9          O187   1.258       .  A
C9          C198   1.462   1_655  S
O10        In179   2.232       .  S
O10         C180   1.259       .  A
O11         C185   1.258   1_554  A
C13         C162   1.431       .  S
O14        In179   2.254       .  S
O15        In179   2.251       .  S
In16         O27   2.259   1_556  S
In16         O21   2.228   1_556  S
In16         O23   2.229   1_556  S
In16         O28   2.247   1_556  S
In16        O194   2.224       .  S
In16        O195   2.259       .  S
In16        O200   2.253       .  S
In16        O201   2.234       .  S
C17          O25   1.259       .  A
C17         O199   1.258       .  A
C17         C221   1.451       .  S
O18        In192   2.224       .  S
O18          C26   1.255       .  A
O19        In192   2.259       .  S
O19          C26   1.263       .  A
C20          O27   1.263       .  A
C20          O21   1.256       .  A
C20         C173   1.433       .  S
C22          O28   1.258   1_556  A
C22         O200   1.258       .  A
C22         C185   1.462   1_455  S
O23         C193   1.258   1_554  A
O24        In192   2.254       .  S
O24         C198   1.258       .  A
O25        In192   2.234       .  S
C26         C175   1.431       .  S
C29         C145   1.529       .  S
C29         C169   1.528       .  S
C29         C150   1.471       .  S
C29         C151   1.472       .  S
C30         C137   1.527       .  S
C30         C157   1.539       .  S
C30         C141   1.475       .  S
C30         C143   1.474       .  S
In31         O42   2.261       .  S
In31         O36   2.227       .  S
In31         O38   2.231       .  S
In31         O43   2.254       .  S
In31        O209   2.227   1_554  S
In31        O210   2.258   1_554  S
In31        O215   2.251   1_554  S
In31        O216   2.232   1_554  S
C32          O40   1.259       .  A
C32         O214   1.259       .  A
C32         C180   1.451       .  S
O33        In207   2.227       .  S
O33          C41   1.256       .  A
O34        In207   2.258       .  S
O34          C41   1.263       .  A
C35          O42   1.263       .  A
C35          O36   1.255       .  A
C35         C144   1.431       .  S
C37          O43   1.258       .  A
C37         O215   1.257   1_554  A
C37         C226   1.464   1_655  S
O38         C208   1.259       .  A
O39        In207   2.251       .  S
O39         C213   1.257       .  A
O40        In207   2.231       .  S
C41         C142   1.432       .  S
In44         O46   2.230       .  S
In44         O47   2.259       .  S
In44         O52   2.252       .  S
In44         O53   2.228       .  S
In44        O231   2.259   1_554  S
In44        O225   2.232   1_554  S
In44        O227   2.233   1_554  S
In44        O232   2.252   1_554  S
C45          O53   1.259       .  A
C45         O227   1.259   1_554  A
C45         C193   1.451   1_554  S
O46          C54   1.256       .  A
O47          C54   1.263       .  A
C48          O55   1.263       .  A
C48          O49   1.256       .  A
C48         C152   1.434       .  S
O49        In220   2.232       .  S
C50          O56   1.258       .  A
C50         O228   1.258       .  A
C50         C213   1.464   1_455  S
O51        In220   2.232       .  S
O51         C221   1.259       .  A
O52         C226   1.258       .  A
C54         C149   1.433       .  S
O55        In220   2.260       .  S
O56        In220   2.252       .  S
C57         C130   1.542       .  S
C57         C165   1.531       .  S
C57         C134   1.479       .  S
C57         C135   1.474       .  S
C58         C121   1.533       .  S
C58         C154   1.523       .  S
C58         C125   1.471       .  S
C58         C128   1.474       .  S
In59         O61   2.234   1_556  S
In59         O62   2.257   1_556  S
In59         O67   2.261   1_556  S
In59         O68   2.231   1_556  S
In59        O246   2.268       .  S
In59        O240   2.233       .  S
In59        O242   2.230       .  S
In59        O247   2.245       .  S
C60          O68   1.259   1_556  A
C60         O242   1.260       .  A
C60         C616   1.452   1_545  S
O61          C69   1.254       .  A
O62          C69   1.262       .  A
C63          O70   1.262       .  A
C63          O64   1.255       .  A
C63         C127   1.435       .  S
O64        In235   2.233       .  S
C65          O71   1.259       .  A
C65         O243   1.260       .  A
C65         C254   1.467       .  S
O66        In235   2.230       .  S
O66         C236   1.260       .  A
O67         C241   1.260   1_554  A
C69         C126   1.431       .  S
O70        In235   2.268       .  S
O71        In235   2.245       .  S
In72         O83   2.270   1_556  S
In72         O77   2.232   1_556  S
In72         O79   2.236   1_556  S
In72         O84   2.267   1_556  S
In72        O250   2.226       .  S
In72        O251   2.256       .  S
In72        O256   2.245       .  S
In72        O257   2.223       .  S
C73          O81   1.258       .  A
C73         O255   1.260       .  A
C73         C629   1.450   1_545  S
O74        In248   2.226       .  S
O74          C82   1.256       .  A
O75        In248   2.256       .  S
O75          C82   1.263       .  A
C76          O83   1.263       .  A
C76          O77   1.255       .  A
C76         C133   1.437       .  S
C78          O84   1.260   1_556  A
C78         O256   1.256       .  A
C78         C241   1.467       .  S
O79         C249   1.260   1_554  A
O80        In248   2.244       .  S
O80         C254   1.256       .  A
O81        In248   2.222       .  S
C82         C136   1.431       .  S
C85         C129   1.527       .  S
C85         C146   1.530       .  S
C85         C117   1.471       .  S
C85         C119   1.465       .  S
C86         C122   1.542       .  S
C86         C138   1.526       .  S
C86         C113   1.464       .  S
C86         C116   1.478       .  S
In87         O98   2.258       .  S
In87         O92   2.232       .  S
In87         O94   2.237       .  S
In87         O99   2.254       .  S
In87        O265   2.223   1_554  S
In87        O266   2.246   1_554  S
In87        O271   2.233   1_554  S
In87        O272   2.228   1_554  S
C88          O96   1.258       .  A
C88         O270   1.260       .  A
C88         C588   1.452       .  S
O89        In263   2.223       .  S
O89          C97   1.257       .  A
O90        In263   2.246       .  S
O90          C97   1.261       .  A
C91          O98   1.262       .  A
C91          O92   1.256       .  A
C91         C115   1.433       .  S
C93          O99   1.260       .  A
C93         O271   1.257   1_554  A
C93         C282   1.460       .  S
O94         C264   1.260   1_554  A
O95        In263   2.234       .  S
O95         C269   1.257       .  A
O96        In263   2.228       .  S
C97         C114   1.426       .  S
In100       O102   2.225       .  S
In100       O103   2.250       .  S
In100       O108   2.252       .  S
In100       O109   2.234       .  S
In100       O287   2.256   1_554  S
In100       O281   2.231   1_554  S
In100       O283   2.224   1_554  S
In100       O288   2.236   1_554  S
C101        O109   1.259       .  A
C101        O283   1.259   1_554  A
C101        C601   1.450   1_554  S
O102        C110   1.255       .  A
O103        C110   1.262       .  A
C104        O111   1.262       .  A
C104        O105   1.256       .  A
C104        C118   1.433       .  S
O105       In276   2.231       .  S
C106        O112   1.258       .  A
C106        O284   1.259       .  A
C106        C269   1.460       .  S
O107       In276   2.224       .  S
O107        C277   1.259       .  A
O108        C282   1.259       .  A
C110        C120   1.427       .  S
O111       In276   2.256       .  S
O112       In276   2.237       .  S
C113        C114   1.202       .  T
C115        C116   1.206       .  T
C117        C118   1.205       .  T
C119        C120   1.202       .  T
C121        C122   1.356       .  D
C121        H123   1.087       .  S
C122        H124   1.088       .  S
C125        C126   1.205       .  T
C127        C128   1.207       .  T
C129        C130   1.358       .  D
C129        H131   1.091       .  S
C130        H132   1.084       .  S
C133        C134   1.208       .  T
C135        C136   1.205       .  T
C137        C138   1.369       .  D
C137        H139   1.087       .  S
C138        H140   1.087       .  S
C141        C142   1.205       .  T
C143        C144   1.205       .  T
C145        C146   1.373       .  D
C145        H147   1.083       .  S
C146        H148   1.084       .  S
C149        C150   1.206       .  T
C151        C152   1.206       .  T
C153        C154   1.369       .  D
C153        H155   1.085       .  S
C154        H156   1.088       .  S
C157        C510   1.357       .  D
C157        H159   1.085       .  S
C158        C509   1.357   1_545  D
C158        H160   1.091   1_545  S
C161        C162   1.205       .  T
C163        C164   1.205       .  T
C165        C166   1.371       .  D
C165        H167   1.086       .  S
C166        H168   1.086       .  S
C169        C522   1.361       .  D
C169        H171   1.091       .  S
C170        C521   1.361   1_545  D
C170        H172   1.083       .  S
C173        C174   1.206       .  T
C175        C176   1.204       .  T
C177        C342   1.532       .  S
C177        C346   1.541       .  S
C177        C350   1.475       .  S
C177        C352   1.473       .  S
C178        C329   1.529       .  S
C178        C334   1.522       .  S
C178        C337   1.471       .  S
C178        C340   1.470       .  S
In179       O181   2.228       .  S
In179       O182   2.256       .  S
In179       O187   2.246       .  S
In179       O188   2.231       .  S
C180        O188   1.258       .  A
O181        C189   1.256       .  A
O182        C189   1.262       .  A
C183        O190   1.263       .  A
C183        O184   1.256       .  A
C183        C339   1.432       .  S
C185        O191   1.258       .  A
C189        C338   1.431       .  S
In192       O203   2.258       .  S
In192       O197   2.227       .  S
In192       O199   2.229       .  S
In192       O204   2.246       .  S
C193        O201   1.259       .  A
O194        C202   1.255       .  A
O195        C202   1.263       .  A
C196        O203   1.263       .  A
C196        O197   1.256       .  A
C196        C349   1.433       .  S
C198        O204   1.258       .  A
C202        C351   1.431       .  S
C205        C321   1.529       .  S
C205        C345   1.528       .  S
C205        C326   1.471       .  S
C205        C327   1.472       .  S
C206        C313   1.526       .  S
C206        C333   1.538       .  S
C206        C317   1.474       .  S
C206        C319   1.474       .  S
In207       O218   2.260       .  S
In207       O212   2.226       .  S
In207       O214   2.231       .  S
In207       O219   2.254       .  S
C208        O216   1.259   1_554  A
O209        C217   1.256       .  A
O210        C217   1.263       .  A
C211        O218   1.263       .  A
C211        O212   1.255       .  A
C211        C320   1.431       .  S
C213        O219   1.258       .  A
C217        C318   1.432       .  S
In220       O222   2.230       .  S
In220       O223   2.259       .  S
In220       O228   2.253       .  S
In220       O229   2.229       .  S
C221        O229   1.259       .  A
O222        C230   1.256       .  A
O223        C230   1.263       .  A
C224        O231   1.263       .  A
C224        O225   1.256       .  A
C224        C328   1.434       .  S
C226        O232   1.258   1_554  A
C230        C325   1.433       .  S
C233        C306   1.542       .  S
C233        C341   1.531       .  S
C233        C310   1.478       .  S
C233        C311   1.474       .  S
C234        C297   1.533       .  S
C234        C330   1.523       .  S
C234        C301   1.471       .  S
C234        C304   1.474       .  S
In235       O237   2.233       .  S
In235       O238   2.257       .  S
In235       O243   2.262       .  S
In235       O244   2.232       .  S
C236        O244   1.259       .  A
C236        C440   1.452   1_545  S
O237        C245   1.254       .  A
O238        C245   1.262       .  A
C239        O246   1.262       .  A
C239        O240   1.255       .  A
C239        C303   1.435       .  S
C241        O247   1.259       .  A
C245        C302   1.431       .  S
In248       O259   2.270       .  S
In248       O253   2.232       .  S
In248       O255   2.236       .  S
In248       O260   2.267       .  S
C249        O257   1.258       .  A
C249        C453   1.450   1_546  S
O250        C258   1.256       .  A
O251        C258   1.263       .  A
C252        O259   1.263       .  A
C252        O253   1.255       .  A
C252        C309   1.437       .  S
C254        O260   1.260       .  A
C258        C312   1.431       .  S
C261        C305   1.527       .  S
C261        C322   1.530       .  S
C261        C293   1.471       .  S
C261        C295   1.465       .  S
C262        C298   1.542       .  S
C262        C314   1.526       .  S
C262        C289   1.464       .  S
C262        C292   1.478       .  S
In263       O274   2.258       .  S
In263       O268   2.232       .  S
In263       O270   2.236       .  S
In263       O275   2.254       .  S
C264        O272   1.258       .  A
C264        C412   1.452       .  S
O265        C273   1.257       .  A
O266        C273   1.261       .  A
C267        O274   1.262       .  A
C267        O268   1.256       .  A
C267        C291   1.433       .  S
C269        O275   1.260       .  A
C273        C290   1.426       .  S
In276       O278   2.225       .  S
In276       O279   2.250       .  S
In276       O284   2.252       .  S
In276       O285   2.234       .  S
C277        O285   1.259       .  A
C277        C425   1.450       .  S
O278        C286   1.255       .  A
O279        C286   1.262       .  A
C280        O287   1.262       .  A
C280        O281   1.256       .  A
C280        C294   1.433       .  S
C282        O288   1.258   1_554  A
C286        C296   1.427       .  S
C289        C290   1.202       .  T
C291        C292   1.206       .  T
C293        C294   1.205       .  T
C295        C296   1.202       .  T
C297        C298   1.356       .  D
C297        H299   1.087       .  S
C298        H300   1.088       .  S
C301        C302   1.204       .  T
C303        C304   1.207       .  T
C305        C306   1.358       .  D
C305        H307   1.091       .  S
C306        H308   1.084       .  S
C309        C310   1.208       .  T
C311        C312   1.205       .  T
C313        C314   1.369       .  D
C313        H315   1.087       .  S
C314        H316   1.087       .  S
C317        C318   1.205       .  T
C319        C320   1.204       .  T
C321        C322   1.373       .  D
C321        H323   1.084       .  S
C322        H324   1.084       .  S
C325        C326   1.206       .  T
C327        C328   1.206       .  T
C329        C330   1.369       .  D
C329        H331   1.085       .  S
C330        H332   1.088       .  S
C333        C686   1.357       .  D
C333        H335   1.085       .  S
C334        C685   1.357   1_545  D
C334        H336   1.091   1_545  S
C337        C338   1.205       .  T
C339        C340   1.205       .  T
C341        C342   1.371       .  D
C341        H343   1.086       .  S
C342        H344   1.086       .  S
C345        C698   1.361       .  D
C345        H347   1.091       .  S
C346        C697   1.361   1_545  D
C346        H348   1.083       .  S
C349        C350   1.206       .  T
C351        C352   1.204       .  T
C353        C518   1.532       .  S
C353        C522   1.541       .  S
C353        C526   1.475       .  S
C353        C528   1.474       .  S
C354        C505   1.529       .  S
C354        C510   1.522       .  S
C354        C513   1.471       .  S
C354        C516   1.470       .  S
In355       O357   2.228       .  S
In355       O358   2.256       .  S
In355       O542   2.254   1_554  S
In355       O536   2.229   1_554  S
In355       O538   2.232   1_554  S
In355       O363   2.246       .  S
In355       O364   2.230       .  S
In355       O543   2.251   1_554  S
C356        O538   1.259   1_554  A
C356        O364   1.258       .  A
C356        C560   1.451       .  S
O357        C365   1.256       .  A
O358        C365   1.262       .  A
C359        O366   1.263       .  A
C359        O360   1.256       .  A
C359        C515   1.432       .  S
O360       In531   2.230       .  S
C361        O539   1.258       .  A
C361        O367   1.258       .  A
C361        C550   1.462   1_655  S
O362       In531   2.232       .  S
O362        C532   1.259       .  A
O363        C537   1.258   1_554  A
C365        C514   1.431       .  S
O366       In531   2.254       .  S
O367       In531   2.251       .  S
In368       O546   2.224       .  S
In368       O547   2.259       .  S
In368       O379   2.259   1_556  S
In368       O373   2.228   1_556  S
In368       O375   2.230   1_556  S
In368       O552   2.254       .  S
In368       O553   2.234       .  S
In368       O380   2.246   1_556  S
C369        O551   1.258       .  A
C369        O377   1.259       .  A
C369        C573   1.451       .  S
O370       In544   2.224       .  S
O370        C378   1.255       .  A
O371       In544   2.259       .  S
O371        C378   1.263       .  A
C372        O379   1.263       .  A
C372        O373   1.256       .  A
C372        C525   1.433       .  S
C374        O552   1.258       .  A
C374        O380   1.258   1_556  A
C374        C537   1.462   1_455  S
O375        C545   1.258       .  A
O376       In544   2.253       .  S
O376        C550   1.258       .  A
O377       In544   2.234       .  S
C378        C527   1.431       .  S
C381        C497   1.529       .  S
C381        C521   1.528       .  S
C381        C502   1.471       .  S
C381        C503   1.472       .  S
C382        C489   1.526       .  S
C382        C509   1.538       .  S
C382        C493   1.474       .  S
C382        C495   1.474       .  S
In383       O561   2.228   1_554  S
In383       O562   2.258   1_554  S
In383       O394   2.260       .  S
In383       O388   2.227       .  S
In383       O390   2.230       .  S
In383       O567   2.251   1_554  S
In383       O568   2.231   1_554  S
In383       O395   2.254       .  S
C384        O566   1.259       .  A
C384        O392   1.259       .  A
C384        C532   1.451       .  S
O385       In559   2.227       .  S
O385        C393   1.256       .  A
O386       In559   2.257       .  S
O386        C393   1.263       .  A
C387        O394   1.262       .  A
C387        O388   1.255       .  A
C387        C496   1.431       .  S
C389        O567   1.257   1_554  A
C389        O395   1.258       .  A
C389        C578   1.464   1_655  S
O390        C560   1.259       .  A
O391       In559   2.251       .  S
O391        C565   1.257       .  A
O392       In559   2.231       .  S
C393        C494   1.432       .  S
In396       O398   2.230       .  S
In396       O399   2.259       .  S
In396       O583   2.260   1_554  S
In396       O577   2.232   1_554  S
In396       O579   2.233   1_554  S
In396       O404   2.252       .  S
In396       O405   2.229       .  S
In396       O584   2.252   1_554  S
C397        O579   1.259   1_554  A
C397        O405   1.259       .  A
C397        C545   1.451       .  S
O398        C406   1.256       .  A
O399        C406   1.263       .  A
C400        O407   1.263       .  A
C400        O401   1.256       .  A
C400        C504   1.434       .  S
O401       In572   2.232       .  S
C402        O580   1.258       .  A
C402        O408   1.258       .  A
C402        C565   1.464   1_455  S
O403       In572   2.233       .  S
O403        C573   1.259       .  A
O404        C578   1.258       .  A
C406        C501   1.434       .  S
O407       In572   2.259       .  S
O408       In572   2.252       .  S
C409        C482   1.542       .  S
C409        C517   1.531       .  S
C409        C486   1.478       .  S
C409        C487   1.474       .  S
C410        C473   1.533       .  S
C410        C506   1.524       .  S
C410        C477   1.471       .  S
C410        C480   1.474       .  S
In411       O413   2.233   1_556  S
In411       O414   2.257   1_556  S
In411       O598   2.268       .  S
In411       O592   2.233       .  S
In411       O594   2.230       .  S
In411       O419   2.262   1_556  S
In411       O420   2.232   1_556  S
In411       O599   2.245       .  S
C412        O594   1.260       .  A
C412        O420   1.259   1_556  A
O413        C421   1.254       .  A
O414        C421   1.262       .  A
C415        O422   1.262       .  A
C415        O416   1.255       .  A
C415        C479   1.435       .  S
O416       In587   2.233       .  S
C417        O595   1.260       .  A
C417        O423   1.259       .  A
C417        C606   1.467       .  S
O418       In587   2.229       .  S
O418        C588   1.260       .  A
O419        C593   1.260   1_554  A
C421        C478   1.431       .  S
O422       In587   2.267       .  S
O423       In587   2.245       .  S
In424       O602   2.226       .  S
In424       O603   2.257       .  S
In424       O435   2.270   1_556  S
In424       O429   2.232   1_556  S
In424       O431   2.236   1_556  S
In424       O608   2.244       .  S
In424       O609   2.223       .  S
In424       O436   2.267   1_556  S
C425        O607   1.260       .  A
C425        O433   1.258       .  A
O426       In600   2.226       .  S
O426        C434   1.256       .  A
O427       In600   2.257       .  S
O427        C434   1.263       .  A
C428        O435   1.263       .  A
C428        O429   1.255       .  A
C428        C485   1.437       .  S
C430        O608   1.256       .  A
C430        O436   1.260   1_556  A
C430        C593   1.467       .  S
O431        C601   1.260   1_554  A
O432       In600   2.245       .  S
O432        C606   1.256       .  A
O433       In600   2.222       .  S
C434        C488   1.431       .  S
C437        C481   1.527       .  S
C437        C498   1.530       .  S
C437        C469   1.471       .  S
C437        C471   1.465       .  S
C438        C474   1.542       .  S
C438        C490   1.526       .  S
C438        C465   1.464       .  S
C438        C468   1.478       .  S
In439       O617   2.223   1_554  S
In439       O618   2.246   1_554  S
In439       O450   2.258       .  S
In439       O444   2.232       .  S
In439       O446   2.237       .  S
In439       O623   2.234   1_554  S
In439       O624   2.229   1_554  S
In439       O451   2.254       .  S
C440        O622   1.260       .  A
C440        O448   1.258       .  A
O441       In615   2.223       .  S
O441        C449   1.257       .  A
O442       In615   2.246       .  S
O442        C449   1.261       .  A
C443        O450   1.262       .  A
C443        O444   1.256       .  A
C443        C467   1.433       .  S
C445        O623   1.257   1_554  A
C445        O451   1.260       .  A
C445        C634   1.460       .  S
O446        C616   1.260   1_554  A
O447       In615   2.233       .  S
O447        C621   1.257       .  A
O448       In615   2.229       .  S
C449        C466   1.426       .  S
In452       O454   2.225       .  S
In452       O455   2.250       .  S
In452       O639   2.255   1_554  S
In452       O633   2.231   1_554  S
In452       O635   2.224   1_554  S
In452       O460   2.252       .  S
In452       O461   2.233       .  S
In452       O640   2.236   1_554  S
C453        O635   1.259   1_554  A
C453        O461   1.259       .  A
O454        C462   1.255       .  A
O455        C462   1.262       .  A
C456        O463   1.262       .  A
C456        O457   1.256       .  A
C456        C470   1.432       .  S
O457       In628   2.231       .  S
C458        O636   1.259       .  A
C458        O464   1.258       .  A
C458        C621   1.459       .  S
O459       In628   2.224       .  S
O459        C629   1.259       .  A
O460        C634   1.259       .  A
C462        C472   1.427       .  S
O463       In628   2.256       .  S
O464       In628   2.236       .  S
C465        C466   1.202       .  T
C467        C468   1.206       .  T
C469        C470   1.205       .  T
C471        C472   1.202       .  T
C473        C474   1.356       .  D
C473        H475   1.087       .  S
C474        H476   1.088       .  S
C477        C478   1.205       .  T
C479        C480   1.207       .  T
C481        C482   1.358       .  D
C481        H483   1.091       .  S
C482        H484   1.084       .  S
C485        C486   1.208       .  T
C487        C488   1.205       .  T
C489        C490   1.369       .  D
C489        H491   1.087       .  S
C490        H492   1.087       .  S
C493        C494   1.205       .  T
C495        C496   1.205       .  T
C497        C498   1.373       .  D
C497        H499   1.084       .  S
C498        H500   1.084       .  S
C501        C502   1.206       .  T
C503        C504   1.206       .  T
C505        C506   1.369       .  D
C505        H507   1.085       .  S
C506        H508   1.088       .  S
C509        H511   1.085       .  S
C510        H512   1.091       .  S
C513        C514   1.205       .  T
C515        C516   1.205       .  T
C517        C518   1.372       .  D
C517        H519   1.086       .  S
C518        H520   1.086       .  S
C521        H523   1.091   1_565  S
C522        H524   1.083       .  S
C525        C526   1.206       .  T
C527        C528   1.204       .  T
C529        C694   1.532       .  S
C529        C698   1.542       .  S
C529        C702   1.475       .  S
C529        C704   1.474       .  S
C530        C681   1.529       .  S
C530        C686   1.521       .  S
C530        C689   1.471       .  S
C530        C692   1.470       .  S
In531       O533   2.228       .  S
In531       O534   2.256       .  S
In531       O539   2.246       .  S
In531       O540   2.231       .  S
C532        O540   1.258       .  A
O533        C541   1.256       .  A
O534        C541   1.262       .  A
C535        O542   1.263       .  A
C535        O536   1.256       .  A
C535        C691   1.432       .  S
C537        O543   1.258       .  A
C541        C690   1.431       .  S
In544       O555   2.259       .  S
In544       O549   2.228       .  S
In544       O551   2.230       .  S
In544       O556   2.247       .  S
C545        O553   1.259   1_554  A
O546        C554   1.255       .  A
O547        C554   1.263       .  A
C548        O555   1.263       .  A
C548        O549   1.256       .  A
C548        C701   1.433       .  S
C550        O556   1.258       .  A
C554        C703   1.431       .  S
C557        C673   1.529       .  S
C557        C697   1.528       .  S
C557        C678   1.471       .  S
C557        C679   1.472       .  S
C558        C665   1.526       .  S
C558        C685   1.539       .  S
C558        C669   1.475       .  S
C558        C671   1.474       .  S
In559       O570   2.260       .  S
In559       O564   2.227       .  S
In559       O566   2.231       .  S
In559       O571   2.254       .  S
C560        O568   1.259   1_554  A
O561        C569   1.256       .  A
O562        C569   1.263       .  A
C563        O570   1.262       .  A
C563        O564   1.255       .  A
C563        C672   1.431       .  S
C565        O571   1.258       .  A
C569        C670   1.432       .  S
In572       O574   2.230       .  S
In572       O575   2.259       .  S
In572       O580   2.252       .  S
In572       O581   2.229       .  S
C573        O581   1.259       .  A
O574        C582   1.256       .  A
O575        C582   1.263       .  A
C576        O583   1.263       .  A
C576        O577   1.256       .  A
C576        C680   1.434       .  S
C578        O584   1.258   1_554  A
C582        C677   1.433       .  S
C585        C658   1.542       .  S
C585        C693   1.531       .  S
C585        C662   1.478       .  S
C585        C663   1.474       .  S
C586        C649   1.533       .  S
C586        C682   1.523       .  S
C586        C653   1.471       .  S
C586        C656   1.474       .  S
In587       O589   2.234       .  S
In587       O590   2.257       .  S
In587       O595   2.261       .  S
In587       O596   2.231       .  S
C588        O596   1.259       .  A
O589        C597   1.254       .  A
O590        C597   1.262       .  A
C591        O598   1.262       .  A
C591        O592   1.255       .  A
C591        C655   1.435       .  S
C593        O599   1.259       .  A
C597        C654   1.431       .  S
In600       O611   2.270       .  S
In600       O605   2.232       .  S
In600       O607   2.236       .  S
In600       O612   2.267       .  S
C601        O609   1.258       .  A
O602        C610   1.256       .  A
O603        C610   1.263       .  A
C604        O611   1.263       .  A
C604        O605   1.255       .  A
C604        C661   1.437       .  S
C606        O612   1.260       .  A
C610        C664   1.432       .  S
C613        C657   1.526       .  S
C613        C674   1.530       .  S
C613        C645   1.470       .  S
C613        C647   1.465       .  S
C614        C650   1.542       .  S
C614        C666   1.526       .  S
C614        C641   1.464       .  S
C614        C644   1.478       .  S
In615       O626   2.258       .  S
In615       O620   2.232       .  S
In615       O622   2.237       .  S
In615       O627   2.254       .  S
C616        O624   1.258       .  A
O617        C625   1.257       .  A
O618        C625   1.261       .  A
C619        O626   1.262       .  A
C619        O620   1.256       .  A
C619        C643   1.433       .  S
C621        O627   1.260       .  A
C625        C642   1.426       .  S
In628       O630   2.225       .  S
In628       O631   2.250       .  S
In628       O636   2.252       .  S
In628       O637   2.234       .  S
C629        O637   1.259       .  A
O630        C638   1.255       .  A
O631        C638   1.262       .  A
C632        O639   1.262       .  A
C632        O633   1.256       .  A
C632        C646   1.432       .  S
C634        O640   1.258   1_554  A
C638        C648   1.427       .  S
C641        C642   1.202       .  T
C643        C644   1.206       .  T
C645        C646   1.205       .  T
C647        C648   1.202       .  T
C649        C650   1.356       .  D
C649        H651   1.087       .  S
C650        H652   1.088       .  S
C653        C654   1.204       .  T
C655        C656   1.207       .  T
C657        C658   1.358       .  D
C657        H659   1.091       .  S
C658        H660   1.084       .  S
C661        C662   1.208       .  T
C663        C664   1.205       .  T
C665        C666   1.369       .  D
C665        H667   1.087       .  S
C666        H668   1.087       .  S
C669        C670   1.205       .  T
C671        C672   1.205       .  T
C673        C674   1.373       .  D
C673        H675   1.083       .  S
C674        H676   1.084       .  S
C677        C678   1.206       .  T
C679        C680   1.206       .  T
C681        C682   1.369       .  D
C681        H683   1.085       .  S
C682        H684   1.088       .  S
C685        H687   1.085       .  S
C686        H688   1.091       .  S
C689        C690   1.205       .  T
C691        C692   1.205       .  T
C693        C694   1.371       .  D
C693        H695   1.086       .  S
C694        H696   1.086       .  S
C697        H699   1.091   1_565  S
C698        H700   1.083       .  S
C701        C702   1.206       .  T
C703        C704   1.204       .  T
