geometry optimzed in LAMMPS
_audit_creation_date              2020-12-01 
_audit_creation_method            'lammps2cif' 
_symmetry_space_group_name_H-M    'P1' 
_symmetry_Int_Tables_number       1 
_symmetry_cell_setting            triclinic 
loop_ 
_symmetry_equiv_pos_as_xyz 
  x,y,z 
_cell_length_a                    50.03199284 
_cell_length_b                    49.88991641136033 
_cell_length_c                    50.06610900235774 
_cell_angle_alpha                 89.89480229982746 
_cell_angle_beta                  90.0170826677941 
_cell_angle_gamma                 89.795248061671 
loop_ 
_atom_site_label 
_atom_site_type_symbol 
_atom_site_fract_x 
_atom_site_fract_y 
_atom_site_fract_z 
_atom_site_charge 
Fe1        Fe  0.76537739  0.82149693  0.60313402     1.65800
Fe2        Fe  0.72917989  0.84869368  0.55187576     1.73200
Fe3        Fe  0.77711102  0.80070667  0.53907404     1.54400
O4          O  0.81378919  0.80932966  0.55620805    -0.82300
O5          O  0.71378939  0.82175912  0.52517322    -0.80600
O6          O  0.80602874  0.82502273  0.59721675    -0.84800
O7          O  0.76811421  0.78052740  0.60303988    -0.79600
O8          O  0.78274938  0.83223299  0.51293651    -0.81400
O9          O  0.70157789  0.83485027  0.57953026    -0.84200
C10         C  0.77153461  0.76175259  0.58642570     0.96600
C11         C  0.82191176  0.81816065  0.57859907     1.04000
O12         O  0.75733043  0.82373947  0.56466920    -1.13100
O13         O  0.73937204  0.87968900  0.57697116    -0.75600
O14         O  0.76337325  0.86231628  0.61005917    -0.79100
O15         O  0.77439048  0.76595032  0.56162755    -0.79800
C16         C  0.75149149  0.88190975  0.59906331     0.95500
O17         O  0.72570197  0.81684937  0.61264022    -0.77700
O18         O  0.75369090  0.86487522  0.52258552    -0.82900
C19         C  0.72040000  0.79966244  0.51465479     0.98100
C20         C  0.77277610  0.85532159  0.50869639     1.04000
O21         O  0.74294722  0.78870343  0.51890455    -0.78500
C22         C  0.70349322  0.82281092  0.60186341     1.02300
Fe23       Fe  0.80703736  0.89370041  0.26620550     1.65800
Fe24       Fe  0.78771538  0.95787220  0.27764144     1.73200
Fe25       Fe  0.83429073  0.94390014  0.22935518     1.54400
O26         O  0.86639471  0.92244972  0.24430057    -0.82300
O27         O  0.77924163  0.98101419  0.24414728    -0.80600
O28         O  0.84719494  0.88599083  0.26093541    -0.84800
O29         O  0.79870394  0.88494012  0.22708670    -0.79600
O30         O  0.84732051  0.97671433  0.25133139    -0.81400
O31         O  0.75255960  0.93740441  0.27065971    -0.84200
C32         C  0.80813429  0.89328668  0.20510769     0.96600
C33         C  0.86776503  0.89880298  0.25359202     1.04000
O34         O  0.80981634  0.93191205  0.25781280    -1.13100
O35         O  0.79297176  0.93830678  0.31395261    -0.75600
O36         O  0.81421264  0.89974128  0.30630752    -0.79100
O37         O  0.82420717  0.91288978  0.20347503    -0.79800
C38         C  0.80458044  0.91711415  0.32219416     0.95500
O39         O  0.76656492  0.89507860  0.27217188    -0.77700
O40         O  0.82048137  0.98083243  0.28667568    -0.82900
C41         C  0.78601977  0.98076471  0.21968430     0.98100
C42         C  0.84101799  0.98760296  0.27344716     1.04000
O43         O  0.80489515  0.96623088  0.21091709    -0.78500
C44         C  0.74806385  0.91242426  0.27118955     1.02300
Fe45       Fe  0.10306408  0.78501870  0.66836546     1.65800
Fe46       Fe  0.04100346  0.78925384  0.69536564     1.73200
Fe47       Fe  0.05472781  0.74216526  0.64692036     1.54400
O48         O  0.07418444  0.75556514  0.61290582    -0.82300
O49         O  0.02286079  0.75380242  0.70689975    -0.80600
O50         O  0.10715196  0.78090962  0.62791941    -0.84800
O51         O  0.11753123  0.74701341  0.67449752    -0.79600
O52         O  0.02074574  0.76290699  0.63472911    -0.81400
O53         O  0.06623885  0.78477424  0.72792142    -0.84200
C54         C  0.10966686  0.72340797  0.66927408     0.96600
C55         C  0.09538225  0.76886699  0.60914152     1.04000
O56         O  0.06613235  0.77211643  0.67006938    -1.13100
O57         O  0.05560070  0.82760896  0.68844910    -0.75600
O58         O  0.09149439  0.82420486  0.66237446    -0.79100
O59         O  0.08743056  0.71860041  0.65784691    -0.79800
C60         C  0.07419870  0.83812658  0.67470699     0.95500
O61         O  0.10587922  0.79058278  0.70881441    -0.77700
O62         O  0.01344570  0.79506877  0.66512142    -0.82900
C63         C  0.02212584  0.73004248  0.69801385     0.98100
C64         C  0.00746374  0.78286719  0.64360660     1.04000
O65         O  0.03377976  0.72325097  0.67665099    -0.78500
C66         C  0.09137052  0.78773059  0.72932966     1.02300
Fe67       Fe  0.21354160  0.18932397  0.38980836     1.65800
Fe68       Fe  0.20673215  0.21213947  0.45332263     1.73200
Fe69       Fe  0.25468243  0.16483677  0.43815561     1.54400
O70         O  0.24025000  0.13136105  0.41834747    -0.82300
O71         O  0.24177650  0.22313829  0.47254675    -0.80600
O72         O  0.21883525  0.14897509  0.38370168    -0.84800
O73         O  0.25170427  0.19751048  0.37743205    -0.79600
O74         O  0.23465352  0.15206573  0.47224320    -0.81400
O75         O  0.21094855  0.24624026  0.43011156    -0.84200
C76         C  0.27465836  0.18980519  0.38504584     0.96600
C77         C  0.22870836  0.12902618  0.39589776     1.04000
O78         O  0.22490991  0.18858922  0.42724374    -1.13100
O79         O  0.16900084  0.20481058  0.43746039    -0.75600
O80         O  0.17428886  0.18204884  0.39953802    -0.79100
O81         O  0.27839918  0.17530918  0.40563815    -0.79800
C82         C  0.15950925  0.19216692  0.41754966     0.95500
O83         O  0.20711314  0.22977883  0.38910856    -0.77700
O84         O  0.20090509  0.18063934  0.47933324    -0.82900
C85         C  0.26602348  0.21558697  0.47160597     0.98100
C86         C  0.21405770  0.15959219  0.48521583     1.04000
O87         O  0.27348400  0.19506721  0.45868563    -0.78500
C88         C  0.20914489  0.24928705  0.40504696     1.02300
Fe89       Fe  0.17852199  0.11271610  0.72567532     1.65800
Fe90       Fe  0.15232362  0.06032229  0.76080839     1.73200
Fe91       Fe  0.20075068  0.04904329  0.71333888     1.54400
O92         O  0.19084181  0.06549405  0.67652773    -0.82300
O93         O  0.17984425  0.03349414  0.77600836    -0.80600
O94         O  0.17757086  0.10734704  0.68488205    -0.84800
O95         O  0.21940309  0.11363204  0.72588521    -0.79600
O96         O  0.17052959  0.02154795  0.70812408    -0.81400
O97         O  0.16518697  0.08758517  0.78916252    -0.84200
C98         C  0.23828959  0.09743658  0.72101196     0.96600
C99         C  0.18300429  0.08849572  0.66873271     1.04000
O100        O  0.17714039  0.07402569  0.73320731    -1.13100
O101        O  0.12113969  0.08546127  0.75047491    -0.75600
O102        O  0.13766425  0.11772169  0.72478519    -0.79100
O103        O  0.23436246  0.07294060  0.71572506    -0.79800
C104        C  0.11834023  0.10673515  0.73685905     0.95500
O105        O  0.18020090  0.12241965  0.76553002    -0.77700
O106        O  0.13672828  0.03162775  0.73536252    -0.82900
C107        C  0.20273678  0.02444963  0.76980795     0.98100
C108        C  0.14707766  0.01749700  0.71693179     1.04000
O109        O  0.21382159  0.02979694  0.74763729    -0.78500
C110        C  0.17504688  0.11096548  0.78756829     1.02300
Fe111      Fe  0.88497579  0.22090056  0.31260182     1.65800
Fe112      Fe  0.93034040  0.26386503  0.33868862     1.73200
Fe113      Fe  0.94965333  0.21439102  0.29579360     1.54400
O114        O  0.93166677  0.17691951  0.30148826    -0.82300
O115        O  0.95352829  0.28206373  0.31027279    -0.80600
O116        O  0.89492256  0.18328602  0.32580972    -0.84800
O117        O  0.88906001  0.20849589  0.27343793    -0.79600
O118        O  0.97142943  0.20811138  0.33014341    -0.81400
O119        O  0.89792649  0.28603514  0.32387417    -0.84200
C120        C  0.90595670  0.21263812  0.25507176     0.96600
C121        C  0.91196074  0.16787846  0.31491803     1.04000
O122        O  0.92184161  0.23314884  0.31592856    -1.13100
O123        O  0.90827340  0.25023144  0.37057444    -0.75600
O124        O  0.87357449  0.23113609  0.35094599    -0.79100
O125        O  0.92976298  0.21975858  0.25988164    -0.79800
C126        C  0.88472130  0.24110666  0.37132621     0.95500
O127        O  0.87379744  0.25788854  0.29882224    -0.77700
O128        O  0.96368566  0.24457926  0.35505193    -0.82900
C129        C  0.97004538  0.27343842  0.29316999     0.98100
C130        C  0.97629113  0.22279325  0.35032019     1.04000
O131        O  0.97160086  0.24876971  0.28700922    -0.78500
C132        C  0.87946808  0.28133256  0.30688326     1.02300
Fe133      Fe  0.71602733  0.32964097  0.60381622     1.65800
Fe134      Fe  0.70521331  0.30745661  0.54074073     1.73200
Fe135      Fe  0.75661061  0.35102124  0.55353685     1.54400
O136        O  0.74577648  0.38497399  0.57433689    -0.82300
O137        O  0.73776608  0.29617372  0.51771780    -0.80600
O138        O  0.72343342  0.36986491  0.60958394    -0.84800
O139        O  0.75446398  0.31952628  0.61479307    -0.79600
O140        O  0.73535036  0.36551190  0.52097556    -0.81400
O141        O  0.70999381  0.27260763  0.56312626    -0.84200
C142        C  0.77748159  0.32543864  0.60589609     0.96600
C143        C  0.73482890  0.38859125  0.59686600     1.04000
O144        O  0.72598308  0.32950781  0.56596698    -1.13100
O145        O  0.66912452  0.31476554  0.55958160    -0.75600
O146        O  0.67649983  0.33900440  0.59604767    -0.79100
O147        O  0.78116870  0.33871682  0.58455763    -0.79800
C148        C  0.66071352  0.32779891  0.57967111     0.95500
O149        O  0.70753332  0.28942031  0.60421677    -0.77700
O150        O  0.69863462  0.34039689  0.51658303    -0.82900
C151        C  0.76245195  0.30179827  0.51723820     0.98100
C152        C  0.71310639  0.36023165  0.50981092     1.04000
O153        O  0.77244893  0.32014811  0.53145849    -0.78500
C154        C  0.70801209  0.26969149  0.58828607     1.02300
Fe155      Fe  0.66664906  0.39647925  0.27109845     1.65800
Fe156      Fe  0.64604954  0.44804348  0.23271628     1.73200
Fe157      Fe  0.69717600  0.45723117  0.27662800     1.54400
O158        O  0.68739005  0.44603460  0.31529160    -0.82300
O159        O  0.67334230  0.47429423  0.21684082    -0.80600
O160        O  0.67213363  0.40441225  0.31099529    -0.84800
O161        O  0.70675214  0.38976478  0.26597196    -0.79600
O162        O  0.66989985  0.48868087  0.27982468    -0.81400
O163        O  0.65928791  0.41978081  0.20563281    -0.84200
C164        C  0.72776673  0.40338730  0.26975145     0.96600
C165        C  0.67951225  0.42401414  0.32529111     1.04000
O166        O  0.67001515  0.43396995  0.26039915    -1.13100
O167        O  0.61418804  0.42371937  0.24269219    -0.75600
O168        O  0.62597574  0.39873533  0.27730403    -0.79100
O169        O  0.72715806  0.42829583  0.27512908    -0.79800
C170        C  0.60864456  0.40663279  0.26060037     0.95500
O171        O  0.66115524  0.38390167  0.23222923    -0.77700
O172        O  0.63226315  0.47713100  0.25855572    -0.82900
C173        C  0.69798706  0.47901575  0.21978557     0.98100
C174        C  0.64541377  0.49273138  0.27377092     1.04000
O175        O  0.71086401  0.47099185  0.24009661    -0.78500
C176        C  0.66184567  0.39466745  0.20918266     1.02300
Fe177      Fe  0.31018955  0.61186730  0.72395747     1.65800
Fe178      Fe  0.29013952  0.54717652  0.71424633     1.73200
Fe179      Fe  0.33726540  0.56186708  0.76222904     1.54400
O180        O  0.36790444  0.58720944  0.75096316    -0.82300
O181        O  0.27800246  0.52827546  0.74913977    -0.80600
O182        O  0.35095763  0.61774228  0.72336011    -0.84800
O183        O  0.30769970  0.62344235  0.76327719    -0.79600
O184        O  0.35401807  0.53218000  0.73882508    -0.81400
O185        O  0.25550026  0.56996080  0.71589475    -0.84200
C186        C  0.31236102  0.61308315  0.78597776     0.96600
C187        C  0.37041704  0.60776333  0.73622901     1.04000
O188        O  0.31259588  0.57360087  0.73338228    -1.13100
O189        O  0.29862454  0.56273470  0.67673565    -0.75600
O190        O  0.31159946  0.60486400  0.68335970    -0.79100
O191        O  0.32286776  0.59005526  0.78884015    -0.79800
C192        C  0.30582772  0.58551715  0.66796387     0.95500
O193        O  0.26922693  0.61166475  0.72359668    -0.77700
O194        O  0.32201566  0.52118984  0.70973125    -0.82900
C195        C  0.28856526  0.52445994  0.77190468     0.98100
C196        C  0.34506888  0.51781410  0.71991383     1.04000
O197        O  0.31058630  0.53503589  0.77850233    -0.78500
C198        C  0.25092396  0.59469089  0.71956891     1.02300
Fe199      Fe  0.38291772  0.27974210  0.66815645     1.65800
Fe200      Fe  0.43512023  0.24179918  0.64884537     1.73200
Fe201      Fe  0.44266799  0.28576708  0.70001386     1.54400
O202        O  0.43163475  0.32440541  0.68925931    -0.82300
O203        O  0.46168486  0.22673995  0.67659140    -0.80600
O204        O  0.39024260  0.31984643  0.67361296    -0.84800
O205        O  0.37510969  0.27475111  0.70806052    -0.79600
O206        O  0.47467675  0.28869403  0.67356549    -0.81400
O207        O  0.40737487  0.21439217  0.66253406    -0.84200
C208        C  0.38808274  0.27955560  0.72927464     0.96600
C209        C  0.40968838  0.33430426  0.68099297     1.04000
O210        O  0.42026445  0.26934724  0.67244055    -1.13100
O211        O  0.41070975  0.25091138  0.61645832    -0.75600
O212        O  0.38638624  0.28615217  0.62775524    -0.79100
O213        O  0.41294005  0.28495271  0.72917287    -0.79800
C214        C  0.39401043  0.26920292  0.61061796     0.95500
O215        O  0.37107757  0.24052994  0.66256934    -0.77700
O216        O  0.46366438  0.26841758  0.63520535    -0.82900
C217        C  0.46539841  0.22923349  0.70148525     0.98100
C218        C  0.47900272  0.28339593  0.64898018     1.04000
O219        O  0.45609629  0.24903951  0.71438664    -0.78500
C220        C  0.38225914  0.21768676  0.66490825     1.02300
Fe221      Fe  0.59952647  0.73334028  0.30719054     1.65800
Fe222      Fe  0.53483932  0.72218095  0.28860498     1.73200
Fe223      Fe  0.54950203  0.76913419  0.33687976     1.54400
O224        O  0.57510586  0.75707486  0.36712825    -0.82300
O225        O  0.51371144  0.75655287  0.27858227    -0.80600
O226        O  0.60837379  0.73569551  0.34710381    -0.84800
O227        O  0.60831600  0.77306494  0.30150255    -0.79600
O228        O  0.52067228  0.74445440  0.35306716    -0.81400
O229        O  0.55577635  0.72674062  0.25314343    -0.84200
C230        C  0.59813924  0.79514634  0.30897488     0.96600
C231        C  0.59772362  0.74556909  0.36775523     1.04000
O232        O  0.56121861  0.74150341  0.31097306    -1.13100
O233        O  0.55292233  0.68526153  0.29537218    -0.75600
O234        O  0.59363174  0.69278594  0.31207620    -0.79100
O235        O  0.57709595  0.79684684  0.32309848    -0.79800
C236        C  0.57509168  0.67704189  0.30486949     0.95500
O237        O  0.59787097  0.73022039  0.26659437    -0.77700
O238        O  0.51022504  0.71519022  0.32106641    -0.82900
C239        C  0.51031623  0.77927682  0.28945232     0.98100
C240        C  0.50683875  0.72507385  0.34423820     1.04000
O241        O  0.52212775  0.78587561  0.31086133    -0.78500
C242        C  0.58054019  0.72875147  0.24831483     1.02300
Fe243      Fe  0.28109065  0.68266384  0.39021099     1.65800
Fe244      Fe  0.23368110  0.66066050  0.43350473     1.73200
Fe245      Fe  0.27949000  0.70754254  0.45259196     1.54400
O246        O  0.31881341  0.70182478  0.43952216    -0.82300
O247        O  0.21259496  0.69029476  0.45228486    -0.80600
O248        O  0.31747470  0.67235784  0.40622936    -0.84800
O249        O  0.29141887  0.72288413  0.39078886    -0.79600
O250        O  0.28424223  0.67583278  0.47867383    -0.81400
O251        O  0.21450902  0.67231742  0.39789418    -0.84200
C252        C  0.28542442  0.74310935  0.40495430     0.96600
C253        C  0.33042129  0.68640267  0.42286839     1.04000
O254        O  0.26450522  0.68350673  0.42554409    -1.13100
O255        O  0.24945152  0.62693803  0.41593113    -0.75600
O256        O  0.27363834  0.64278461  0.38252067    -0.79100
O257        O  0.27559132  0.74078136  0.42818383    -0.79800
C258        C  0.26164662  0.62372755  0.39406239     0.95500
O259        O  0.24539092  0.69274365  0.37261586    -0.77700
O260        O  0.25051809  0.64773679  0.46973224    -0.82900
C261        C  0.21888442  0.70991813  0.46684911     0.98100
C262        C  0.27064302  0.65488856  0.48375797     1.04000
O263        O  0.24288082  0.71763258  0.46953785    -0.78500
C264        C  0.22137382  0.68568993  0.37714667     1.02300
Fe265      Fe  0.82200274  0.61457233  0.77145729     1.65800
Fe266      Fe  0.84590857  0.56425792  0.73249870     1.73200
Fe267      Fe  0.79729193  0.55138697  0.77928826     1.54400
O268        O  0.80638495  0.56461541  0.81731048    -0.82300
O269        O  0.81832035  0.53881671  0.71573744    -0.80600
O270        O  0.81853072  0.60704232  0.81178890    -0.84800
O271        O  0.78135175  0.61742810  0.76724934    -0.79600
O272        O  0.82708485  0.52303694  0.78330564    -0.81400
O273        O  0.83217003  0.59310634  0.70589874    -0.84200
C274        C  0.76189605  0.60181291  0.77157963     0.96600
C275        C  0.81266734  0.58733443  0.82667386     1.04000
O276        O  0.82181882  0.57661140  0.76124801    -1.13100
O277        O  0.87731606  0.58878279  0.74410132    -0.75600
O278        O  0.86276498  0.61598985  0.77614623    -0.79100
O279        O  0.76479316  0.57719476  0.77745482    -0.79800
C280        C  0.88119800  0.60727535  0.76109477     0.95500
O281        O  0.82501687  0.62786063  0.73270946    -0.77700
O282        O  0.86111143  0.53369884  0.75632515    -0.82900
C283        C  0.79525988  0.53021719  0.72153343     0.98100
C284        C  0.85048699  0.51898871  0.77422183     1.04000
O285        O  0.78429678  0.53455067  0.74393943    -0.78500
C286        C  0.82645149  0.61762978  0.70958630     1.02300
Fe287      Fe  0.88484246  0.27709564  0.81372673     1.65800
Fe288      Fe  0.94836614  0.28709256  0.79133934     1.73200
Fe289      Fe  0.93513559  0.23729577  0.83738807     1.54400
O290        O  0.91202472  0.24767836  0.87001526    -0.82300
O291        O  0.96886906  0.25331505  0.77896529    -0.80600
O292        O  0.87890878  0.27262983  0.85406270    -0.84800
O293        O  0.87424792  0.23813580  0.80626127    -0.79600
O294        O  0.96580327  0.26020890  0.85302195    -0.81400
O295        O  0.92530494  0.28399272  0.75700425    -0.84200
C296        C  0.88413808  0.21515404  0.81100573     0.96600
C297        C  0.89030268  0.26042595  0.87308917     1.04000
O298        O  0.92287509  0.26721366  0.81428016    -1.13100
O299        O  0.93142230  0.32395371  0.80009888    -0.75600
O300        O  0.89225479  0.31713477  0.82012181    -0.79100
O301        O  0.90587476  0.21153507  0.82363123    -0.79800
C302        C  0.91036418  0.33262429  0.81140012     0.95500
O303        O  0.88409125  0.28271351  0.77340132    -0.77700
O304        O  0.97422686  0.29230658  0.82295140    -0.82900
C305        C  0.97111805  0.22949416  0.78749839     0.98100
C306        C  0.97886088  0.28057473  0.84506336     1.04000
O307        O  0.95960073  0.22136965  0.80848434    -0.78500
C308        C  0.90014313  0.28368219  0.75394174     1.02300
Fe309      Fe  0.76335651  0.68682855  0.10305556     1.65800
Fe310      Fe  0.77447987  0.70591309  0.03923885     1.73200
Fe311      Fe  0.72667537  0.65899957  0.05353191     1.54400
O312        O  0.74211213  0.62687804  0.07475330    -0.82300
O313        O  0.74090957  0.71402957  0.01625433    -0.80600
O314        O  0.75695243  0.64692257  0.11135349    -0.84800
O315        O  0.72434654  0.69639405  0.11134252    -0.79600
O316        O  0.74832571  0.64610523  0.02049385    -0.81400
O317        O  0.76709601  0.74131965  0.05954592    -0.84200
C318        C  0.70248352  0.68631720  0.10348678     0.96600
C319        C  0.75032374  0.62599440  0.09871513     1.04000
O320        O  0.75493660  0.68374710  0.06512763    -1.13100
O321        O  0.81067840  0.70101389  0.05901790    -0.75600
O322        O  0.80322763  0.67834879  0.09671540    -0.79100
O323        O  0.70109871  0.66916846  0.08478063    -0.79800
C324        C  0.81902050  0.68882288  0.07979124     0.95500
O325        O  0.77050672  0.72722243  0.10152137    -0.77700
O326        O  0.78373126  0.67289340  0.01634905    -0.82900
C327        C  0.71647210  0.70719229  0.01681926     0.98100
C328        C  0.77031917  0.65246826  0.00942414     1.04000
O329        O  0.70791732  0.68836442  0.03151051    -0.78500
C330        C  0.76861401  0.74583028  0.08440824     1.02300
Fe331      Fe  0.17681188  0.39978220  0.22168731     1.65800
Fe332      Fe  0.19081427  0.46493570  0.21097758     1.73200
Fe333      Fe  0.14608015  0.44690758  0.25921092     1.54400
O334        O  0.11530271  0.42399101  0.24371858    -0.82300
O335        O  0.19772280  0.48806516  0.24469612    -0.80600
O336        O  0.13814360  0.38821003  0.23053050    -0.84800
O337        O  0.18865985  0.39217264  0.26013029    -0.79600
O338        O  0.13107108  0.48020027  0.23876045    -0.81400
O339        O  0.22750841  0.44692350  0.21770627    -0.84200
C340        C  0.17726525  0.39813687  0.28198039     0.96600
C341        C  0.11635832  0.39939933  0.23725863     1.04000
O342        O  0.17100297  0.43737880  0.23048570    -1.13100
O343        O  0.18674080  0.44492070  0.17478076    -0.75600
O344        O  0.16602737  0.40610194  0.18251338    -0.79100
O345        O  0.15843587  0.41529517  0.28354235    -0.79800
C346        C  0.17549412  0.42356543  0.16659241     0.95500
O347        O  0.21650257  0.40424606  0.21186793    -0.77700
O348        O  0.15630842  0.48575350  0.20242951    -0.82900
C349        C  0.19193459  0.48605265  0.26934495     0.98100
C350        C  0.13625316  0.49190124  0.21672339     1.04000
O351        O  0.17442250  0.46991514  0.27800576    -0.78500
C352        C  0.23373459  0.42261076  0.21393120     1.02300
Fe353      Fe  0.09951086  0.73143190  0.16609280     1.65800
Fe354      Fe  0.04700130  0.76916498  0.14686552     1.73200
Fe355      Fe  0.03974810  0.72471615  0.19760388     1.54400
O356        O  0.05028737  0.68644478  0.18590167    -0.82300
O357        O  0.02025571  0.78333798  0.17474049    -0.80600
O358        O  0.09210795  0.69090241  0.17120309    -0.84800
O359        O  0.10727588  0.73597728  0.20611164    -0.79600
O360        O  0.00735416  0.72291608  0.17143721    -0.81400
O361        O  0.07437741  0.79667622  0.16069960    -0.84200
C362        C  0.09439499  0.73002658  0.22710067     0.96600
C363        C  0.07234085  0.67648154  0.17809491     1.04000
O364        O  0.06211866  0.74153120  0.17026772    -1.13100
O365        O  0.07159310  0.76091324  0.11456600    -0.75600
O366        O  0.09610705  0.72566365  0.12558168    -0.79100
O367        O  0.06964172  0.72418464  0.22671731    -0.79800
C368        C  0.08859365  0.74297978  0.10867144     0.95500
O369        O  0.11114198  0.77109439  0.16094154    -0.77700
O370        O  0.01875739  0.74255224  0.13285689    -0.82900
C371        C  0.01699306  0.78073996  0.19969055     0.98100
C372        C  0.00299799  0.72821807  0.14683654     1.04000
O373        O  0.02698930  0.76123008  0.21257672    -0.78500
C374        C  0.09956693  0.79384442  0.16278821     1.02300
Fe375      Fe  0.20425533  0.32044622  0.89262814     1.65800
Fe376      Fe  0.24952340  0.34598821  0.93553427     1.73200
Fe377      Fe  0.20492725  0.29859487  0.95580502     1.54400
O378        O  0.16592217  0.30365089  0.94144835    -0.82300
O379        O  0.27138414  0.31732437  0.95531304    -0.80600
O380        O  0.16792369  0.33249076  0.90739031    -0.84800
O381        O  0.19251901  0.28072812  0.89561511    -0.79600
O382        O  0.19882695  0.33087369  0.98039895    -0.81400
O383        O  0.26901783  0.33420364  0.90023741    -0.84200
C384        C  0.19947172  0.26120062  0.91031941     0.96600
C385        C  0.15467299  0.31897864  0.92433338     1.04000
O386        O  0.21980484  0.32183349  0.92822121    -1.13100
O387        O  0.23206526  0.37853070  0.91697298    -0.75600
O388        O  0.21312205  0.35953529  0.88201753    -0.79100
O389        O  0.21020614  0.26465611  0.93293642    -0.79800
C390        C  0.22260773  0.37993416  0.89359185     0.95500
O391        O  0.24034139  0.30817569  0.87760625    -0.77700
O392        O  0.23233318  0.35914271  0.97124648    -0.82900
C393        C  0.26538750  0.29817032  0.97076650     0.98100
C394        C  0.21207721  0.35205247  0.98505398     1.04000
O395        O  0.24151939  0.29008296  0.97373464    -0.78500
C396        C  0.26362680  0.31763795  0.88147829     1.02300
Fe397      Fe  0.60025116  0.78580537  0.81174905     1.65800
Fe398      Fe  0.55529559  0.73890179  0.83164754     1.73200
Fe399      Fe  0.53671496  0.78986037  0.79043544     1.54400
O400        O  0.55306563  0.82784791  0.79620170    -0.82300
O401        O  0.53612724  0.72128856  0.79989610    -0.80600
O402        O  0.58735523  0.82297917  0.82386631    -0.84800
O403        O  0.59845287  0.79729745  0.77189562    -0.79600
O404        O  0.51383491  0.79487516  0.82413530    -0.81400
O405        O  0.58976896  0.71900764  0.81929428    -0.84200
C406        C  0.58260918  0.79292607  0.75252814     0.96600
C407        C  0.57111479  0.83771358  0.81108596     1.04000
O408        O  0.56408135  0.77135815  0.81148895    -1.13100
O409        O  0.57387220  0.75177413  0.86608645    -0.75600
O410        O  0.60764509  0.77644415  0.85123221    -0.79100
O411        O  0.55867190  0.78525968  0.75585496    -0.79800
C412        C  0.59568205  0.76408138  0.86983579     0.95500
O413        O  0.61574132  0.74967667  0.79977605    -0.77700
O414        O  0.51969958  0.75582628  0.84568038    -0.82900
C415        C  0.51878066  0.73056408  0.78395653     0.98100
C416        C  0.50760657  0.77819281  0.84236032     1.04000
O417        O  0.51549344  0.75556434  0.78059038    -0.78500
C418        C  0.61039445  0.72554605  0.80587497     1.02300
Fe419      Fe  0.27476152  0.81577019  0.88992429     1.65800
Fe420      Fe  0.27938583  0.79926923  0.95487794     1.73200
Fe421      Fe  0.23326772  0.84506270  0.93411427     1.54400
O422        O  0.25148545  0.87651489  0.91437905    -0.82300
O423        O  0.24384942  0.79321932  0.97558510    -0.80600
O424        O  0.26714079  0.85505644  0.87889530    -0.84800
O425        O  0.23715556  0.80464263  0.87814268    -0.79600
O426        O  0.25077826  0.85816011  0.96964097    -0.81400
O427        O  0.27253401  0.76349087  0.93556241    -0.84200
C428        C  0.21495824  0.81643964  0.88205535     0.96600
C429        C  0.26006571  0.87651222  0.89052615     1.04000
O430        O  0.26250223  0.82020695  0.92646395    -1.13100
O431        O  0.31733207  0.80202854  0.93756431    -0.75600
O432        O  0.31291798  0.82626164  0.90035489    -0.79100
O433        O  0.21192732  0.83454302  0.89976155    -0.79800
C434        C  0.32734210  0.81448563  0.91768712     0.95500
O435        O  0.28438801  0.77570467  0.89453033    -0.77700
O436        O  0.28733136  0.83328650  0.97655047    -0.82900
C437        C  0.21939840  0.79888609  0.97132526     0.98100
C438        C  0.27222208  0.85292300  0.98244985     1.04000
O439        O  0.21215532  0.81599324  0.95400172    -0.78500
C440        C  0.27970600  0.75790408  0.91197996     1.02300
Fe441      Fe  0.67122960  0.11593516  0.77000455     1.65800
Fe442      Fe  0.69493785  0.05259636  0.77959334     1.73200
Fe443      Fe  0.64628309  0.06486590  0.73239549     1.54400
O444        O  0.61344429  0.08584108  0.74652714    -0.82300
O445        O  0.70482779  0.03114559  0.74561516    -0.80600
O446        O  0.63045609  0.12110369  0.76735668    -0.84800
O447        O  0.67662267  0.12663152  0.73084746    -0.79600
O448        O  0.63406647  0.03227035  0.75534096    -0.81400
O449        O  0.72844217  0.07568826  0.77296685    -0.84200
C450        C  0.66928799  0.11739516  0.70844678     0.96600
C451        C  0.61070437  0.10822421  0.75821386     1.04000
O452        O  0.67067349  0.07769339  0.76071594    -1.13100
O453        O  0.68879841  0.07039073  0.81667636    -0.75600
O454        O  0.66668531  0.10866319  0.81020397    -0.79100
O455        O  0.65607433  0.09579338  0.70603662    -0.79800
C456        C  0.67700038  0.09118392  0.82554828     0.95500
O457        O  0.71202727  0.11712331  0.77360161    -0.77700
O458        O  0.66426101  0.02662341  0.78782333    -0.82900
C459        C  0.69623661  0.02975249  0.72181579     0.98100
C460        C  0.64278342  0.02009962  0.77600955     1.04000
O461        O  0.67564434  0.04238960  0.71397335    -0.78500
C462        C  0.73151633  0.10088225  0.77276121     1.02300
Fe463      Fe  0.38206602  0.23264601  0.17561370     1.65800
Fe464      Fe  0.44495364  0.22525408  0.19950681     1.73200
Fe465      Fe  0.43114244  0.27350012  0.15243754     1.54400
O466        O  0.41215725  0.25880481  0.11861931    -0.82300
O467        O  0.46609185  0.25961476  0.20901436    -0.80600
O468        O  0.37688466  0.23774680  0.13525907    -0.84800
O469        O  0.36939649  0.27105200  0.18318573    -0.79600
O470        O  0.46561764  0.25299385  0.14089385    -0.81400
O471        O  0.42182755  0.23171607  0.23316986    -0.84200
C472        C  0.37715509  0.29402644  0.17559234     0.96600
C473        C  0.38975744  0.24728653  0.11568666     1.04000
O474        O  0.41949198  0.24380823  0.17569104    -1.13100
O475        O  0.42747466  0.18779864  0.19440196    -0.75600
O476        O  0.39167821  0.19311116  0.16852095    -0.79100
O477        O  0.39832566  0.29747028  0.16192295    -0.79800
C478        C  0.40807039  0.17827466  0.18107640     0.95500
O479        O  0.38110073  0.22638906  0.21611608    -0.77700
O480        O  0.47016405  0.21743575  0.16785994    -0.82900
C481        C  0.46509724  0.28416839  0.20241158     0.98100
C482        C  0.47736462  0.23130960  0.14776304     1.04000
O483        O  0.45101968  0.29251950  0.18305054    -0.78500
C484        C  0.39674271  0.22913443  0.23582703     1.02300
Fe485      Fe  0.71650322  0.18877941  0.10506150     1.65800
Fe486      Fe  0.75506256  0.16301471  0.05555969     1.73200
Fe487      Fe  0.70699749  0.20997886  0.04114855     1.54400
O488        O  0.67006862  0.20474907  0.05945411    -0.82300
O489        O  0.77400901  0.19296696  0.03490667    -0.80600
O490        O  0.67667120  0.18207404  0.09725682    -0.84800
O491        O  0.71066052  0.22956060  0.10440501    -0.79600
O492        O  0.69871600  0.17766324  0.01713598    -0.81400
O493        O  0.77970674  0.17211405  0.08784725    -0.84200
C494        C  0.71153490  0.24858029  0.08759788     0.96600
C495        C  0.66125394  0.19276964  0.08008971     1.04000
O496        O  0.72614711  0.18718156  0.06719799    -1.13100
O497        O  0.73984314  0.13018398  0.07539470    -0.75600
O498        O  0.72144356  0.14811479  0.11164412    -0.79100
O499        O  0.71307011  0.24475199  0.06261832    -0.79800
C500        C  0.72987515  0.12801027  0.09858472     0.95500
O501        O  0.75530034  0.19626767  0.11625180    -0.77700
O502        O  0.73434176  0.15098847  0.02150331    -0.82900
C503        C  0.76564789  0.21178588  0.02005643     0.98100
C504        C  0.71256045  0.15754916  0.00997583     1.04000
O505        O  0.74118282  0.21873773  0.01914337    -0.78500
C506        C  0.77750932  0.18664435  0.10860126     1.02300
Fe507      Fe  0.30174935  0.89880935  0.22217972     1.65800
Fe508      Fe  0.33141230  0.94862816  0.25744643     1.73200
Fe509      Fe  0.28100603  0.96338303  0.21263529     1.54400
O510        O  0.28789046  0.94646863  0.17507012    -0.82300
O511        O  0.30380204  0.97206332  0.27707499    -0.80600
O512        O  0.30631948  0.90611764  0.18201809    -0.84800
O513        O  0.26104710  0.89936747  0.21855339    -0.79600
O514        O  0.31176129  0.98988747  0.20554819    -0.81400
O515        O  0.32218620  0.91755424  0.28375558    -0.84200
C516        C  0.24222947  0.91627227  0.21743131     0.96600
C517        C  0.29817654  0.92465215  0.16650713     1.04000
O518        O  0.30477735  0.93707395  0.23066426    -1.13100
O519        O  0.36254915  0.92642264  0.24155266    -0.75600
O520        O  0.34209385  0.89076899  0.22502659    -0.79100
O521        O  0.24632806  0.94127331  0.21688658    -0.79800
C522        C  0.36311069  0.90273978  0.23240433     0.95500
O523        O  0.29637960  0.88876968  0.26153980    -0.77700
O524        O  0.34408579  0.98114175  0.23490155    -0.82900
C525        C  0.28206904  0.98396093  0.27133201     0.98100
C526        C  0.33427767  0.99506320  0.21597632     1.04000
O527        O  0.27137195  0.98261201  0.24828200    -0.78500
C528        C  0.30741471  0.89684944  0.28284765     1.02300
C529        C  0.34840091  0.06220427  0.18339977    -0.11400
C530        C  0.37415067  0.06823286  0.19294197     0.05700
C531        C  0.38749909  0.04883579  0.20856253    -0.10200
C532        C  0.37498067  0.02468342  0.21537159    -0.11800
C533        C  0.34894289  0.01912700  0.20644745    -0.01600
C534        C  0.33607666  0.03795903  0.18988083    -0.10700
C535        C  0.38608158  0.09525885  0.18803526     0.05700
H536        H  0.40752621  0.05239264  0.21584108     0.07600
H537        H  0.38554884  0.01055683  0.22804123     0.11100
H538        H  0.31595220  0.03449598  0.18276664     0.11400
H539        H  0.33713540  0.07667625  0.17179386     0.07700
C540        C  0.38005591  0.10982492  0.16462994    -0.11400
C541        C  0.38822880  0.13647642  0.16172910    -0.10700
C542        C  0.40319542  0.14902167  0.18182550    -0.01600
C543        C  0.41071288  0.13404764  0.20441737    -0.11800
C544        C  0.40205382  0.10760569  0.20760794    -0.10200
H545        H  0.36846967  0.10088333  0.14875456     0.07700
H546        H  0.38227926  0.14750520  0.14401186     0.11400
H547        H  0.42194482  0.14327505  0.22040916     0.11100
H548        H  0.40682654  0.09737705  0.22610295     0.07700
C549        C  0.53564685  0.18867321  0.12443233    -0.11400
C550        C  0.55013082  0.20684302  0.10860880     0.05700
C551        C  0.53902602  0.23234062  0.10365047    -0.10200
C552        C  0.51472456  0.23989808  0.11533572    -0.11800
C553        C  0.50108707  0.22221614  0.13241702    -0.01600
C554        C  0.51152403  0.19630137  0.13629586    -0.10700
C555        C  0.57766351  0.20012341  0.09935901     0.05700
H556        H  0.54972036  0.24696965  0.09182263     0.07600
H557        H  0.50726883  0.26002919  0.11196494     0.11100
H558        H  0.50135593  0.18205436  0.14904657     0.11400
H559        H  0.54327331  0.16867767  0.12818039     0.07700
C560        C  0.59516895  0.18582232  0.11619111    -0.11400
C561        C  0.62193684  0.18210146  0.10917505    -0.10700
C562        C  0.63201322  0.19272650  0.08520603    -0.01600
C563        C  0.61424113  0.20586300  0.06770601    -0.11800
C564        C  0.58737255  0.20950194  0.07470156    -0.10200
H565        H  0.58857287  0.17861409  0.13548956     0.07700
H566        H  0.63501025  0.17193033  0.12318328     0.11400
H567        H  0.62127881  0.21421054  0.04902325     0.11100
H568        H  0.57433951  0.22019194  0.06105163     0.07700
C569        C  0.67036995  0.13459582  0.95147815    -0.11400
C570        C  0.68850141  0.11845021  0.93722399     0.05700
C571        C  0.71362619  0.11297736  0.94870930    -0.10200
C572        C  0.72094918  0.12452992  0.97308086    -0.11800
C573        C  0.70341141  0.14200245  0.98644944    -0.01600
C574        C  0.67777024  0.14632263  0.97570645    -0.10700
C575        C  0.68230357  0.10949319  0.90950397     0.05700
H576        H  0.72823853  0.10090388  0.93821803     0.07600
H577        H  0.74086275  0.12081420  0.98075787     0.11100
H578        H  0.66362517  0.15941103  0.98564418     0.11400
H579        H  0.65064551  0.13875824  0.94356710     0.07700
C580        C  0.69177084  0.08479314  0.89973440    -0.11400
C581        C  0.68892906  0.07817095  0.87270434    -0.10700
C582        C  0.67647225  0.09606595  0.85482290    -0.01600
C583        C  0.66571298  0.12006784  0.86492234    -0.11800
C584        C  0.66865752  0.12672167  0.89184884    -0.10200
H585        H  0.70194756  0.07082446  0.91285646     0.07700
H586        H  0.69731341  0.05943387  0.86566511     0.11400
H587        H  0.65599889  0.13436281  0.85178825     0.11100
H588        H  0.66139788  0.14606147  0.89847311     0.07700
C589        C  0.31075265  0.88041721  0.04145982    -0.11400
C590        C  0.29085430  0.89487002  0.05517361     0.05700
C591        C  0.26552049  0.89761506  0.04323668    -0.10200
C592        C  0.25986361  0.88514665  0.01887081    -0.11800
C593        C  0.27932911  0.86943919  0.00599128    -0.01600
C594        C  0.30501713  0.86772868  0.01726586    -0.10700
C595        C  0.29567904  0.90481871  0.08281739     0.05700
H596        H  0.24959562  0.90827497  0.05334632     0.07600
H597        H  0.23983365  0.88673488  0.01080360     0.11100
H598        H  0.32055427  0.85599930  0.00771879     0.11400
H599        H  0.33063544  0.87834638  0.04975472     0.07700
C600        C  0.31059211  0.88920364  0.10089774    -0.11400
C601        C  0.31257061  0.89653478  0.12770460    -0.10700
C602        C  0.29959315  0.91964264  0.13729361    -0.01600
C603        C  0.28580601  0.93606645  0.11900546    -0.11800
C604        C  0.28385510  0.92871745  0.09205688    -0.10200
H605        H  0.31968138  0.87050283  0.09469148     0.07700
H606        H  0.32343481  0.88341284  0.14114993     0.11400
H607        H  0.27560682  0.95402206  0.12569213     0.11100
H608        H  0.27257523  0.94143680  0.07858316     0.07700
C609        C  0.59833162  0.90601385  0.82907585    -0.11400
C610        C  0.59058523  0.92137106  0.80670860     0.05700
C611        C  0.57325761  0.90971777  0.78790784    -0.10200
C612        C  0.56529501  0.88301538  0.79048930    -0.11800
C613        C  0.57480736  0.86714842  0.81169283    -0.01600
C614        C  0.59077276  0.87914032  0.83137499    -0.10700
C615        C  0.60260708  0.94824169  0.80154546     0.05700
H616        H  0.56707218  0.92063665  0.77023547     0.07600
H617        H  0.55312819  0.87432773  0.77488332     0.11100
H618        H  0.59821013  0.86747997  0.84809821     0.11400
H619        H  0.61098868  0.91444950  0.84439894     0.07700
C620        C  0.58856379  0.96822723  0.78731528    -0.11400
C621        C  0.60129003  0.99195501  0.77951069    -0.10700
C622        C  0.62814937  0.99645755  0.78622352    -0.01600
C623        C  0.64176446  0.97713115  0.80153937    -0.11800
C624        C  0.62926515  0.95328302  0.80887900    -0.10200
H625        H  0.56788105  0.96537232  0.78176247     0.07700
H626        H  0.59021833  0.00662101  0.76791687     0.11400
H627        H  0.66254978  0.97985748  0.80684641     0.11100
H628        H  0.64104458  0.93829792  0.81927235     0.07700
C629        C  0.39464030  0.82460667  0.88525758    -0.11400
C630        C  0.41020370  0.80471471  0.89778622     0.05700
C631        C  0.39906973  0.79019384  0.91912093    -0.10200
C632        C  0.37253586  0.79458477  0.92684843    -0.11800
C633        C  0.35658423  0.81348378  0.91328523    -0.01600
C634        C  0.36818486  0.82894927  0.89292059    -0.10700
C635        C  0.43708636  0.79796550  0.88707306     0.05700
H636        H  0.41066366  0.77498474  0.92939699     0.07600
H637        H  0.36416902  0.78226286  0.94256887     0.11100
H638        H  0.35646310  0.84364457  0.88204320     0.11400
H639        H  0.40243073  0.83592607  0.86853110     0.07700
C640        C  0.44521124  0.77106551  0.88439401    -0.11400
C641        C  0.46890104  0.76460615  0.87098763    -0.10700
C642        C  0.48471530  0.78490694  0.85974869    -0.01600
C643        C  0.47725559  0.81179161  0.86351039    -0.11800
C644        C  0.45381634  0.81825424  0.87718608    -0.10200
H645        H  0.43263660  0.75493695  0.89148873     0.07700
H646        H  0.47412672  0.74370667  0.86824986     0.11400
H647        H  0.48928181  0.82785693  0.85535033     0.11100
H648        H  0.44841654  0.83916813  0.87940575     0.07700
C649        C  0.30504443  0.24867306  0.01285413    -0.11400
C650        C  0.32686471  0.26447387  0.02110225     0.05700
C651        C  0.32903252  0.29064360  0.01080351    -0.10200
C652        C  0.30957302  0.30100355  0.99362887    -0.11800
C653        C  0.28710329  0.28573808  0.98666491    -0.01600
C654        C  0.28519769  0.25931573  0.99611635    -0.10700
C655        C  0.34552583  0.25513223  0.04254897     0.05700
H656        H  0.34504642  0.30375097  0.01698878     0.07600
H657        H  0.31150310  0.32152468  0.98679519     0.11100
H658        H  0.26825014  0.24699537  0.99077672     0.11400
H659        H  0.30291382  0.22823495  0.01979722     0.07700
C660        C  0.33598188  0.23902825  0.06352854    -0.11400
C661        C  0.35145575  0.23460700  0.08630630    -0.10700
C662        C  0.37677990  0.24647104  0.08900531    -0.01600
C663        C  0.38737218  0.26059653  0.06716043    -0.11800
C664        C  0.37197323  0.26472135  0.04410627    -0.10200
H665        H  0.31579330  0.23135217  0.06338466     0.07700
H666        H  0.34270430  0.22333050  0.10259638     0.11400
H667        H  0.40692910  0.26972291  0.06841605     0.11100
H668        H  0.38041432  0.27645992  0.02800235     0.07700
C669        C  0.12280912  0.86080919  0.18994211    -0.11400
C670        C  0.15054581  0.85817509  0.18683772     0.05700
C671        C  0.16093706  0.83599702  0.17314438    -0.10200
C672        C  0.14408985  0.81586588  0.16402735    -0.11800
C673        C  0.11642281  0.81744876  0.16845365    -0.01600
C674        C  0.10577945  0.84051472  0.18075405    -0.10700
C675        C  0.16942052  0.87663601  0.19978899     0.05700
H676        H  0.18232004  0.83379071  0.17041961     0.07600
H677        H  0.15287627  0.79853840  0.15436659     0.11100
H678        H  0.08452497  0.84220976  0.18448929     0.11400
H679        H  0.11451564  0.87781680  0.20053647     0.07700
C680        C  0.17347983  0.90266186  0.18993876    -0.11400
C681        C  0.19614283  0.91717388  0.19777761    -0.10700
C682        C  0.21487834  0.90558081  0.21532080    -0.01600
C683        C  0.20924348  0.88063496  0.22699573    -0.11800
C684        C  0.18672334  0.86631005  0.21929035    -0.10200
H685        H  0.16035717  0.91082450  0.17474159     0.07700
H686        H  0.20019134  0.93630847  0.18838043     0.11400
H687        H  0.22327409  0.87136846  0.24070478     0.11100
H688        H  0.18380004  0.84627103  0.22714147     0.07700
C689        C  0.14044924  0.73174521  0.05508741    -0.11400
C690        C  0.13704584  0.75485925  0.03933013     0.05700
C691        C  0.11459122  0.77125328  0.04384976    -0.10200
C692        C  0.09725441  0.76592563  0.06505959    -0.11800
C693        C  0.10207092  0.74416654  0.08232603    -0.01600
C694        C  0.12315392  0.72645199  0.07636734    -0.10700
C695        C  0.15818257  0.76348085  0.02032379     0.05700
H696        H  0.11140826  0.78928670  0.03219719     0.07600
H697        H  0.08120491  0.77998011  0.06901946     0.11100
H698        H  0.12733355  0.70939342  0.08913180     0.11400
H699        H  0.15719939  0.71837658  0.05170386     0.07700
C700        C  0.18532000  0.76096477  0.02732078    -0.11400
C701        C  0.20525644  0.77175540  0.01103328    -0.10700
C702        C  0.19851209  0.78551654  0.98747054    -0.01600
C703        C  0.17145406  0.78728743  0.98000736    -0.11800
C704        C  0.15152465  0.77633461  0.99621275    -0.10200
H705        H  0.19114706  0.75161559  0.04598080     0.07700
H706        H  0.22588932  0.77010593  0.01738152     0.11400
H707        H  0.16561463  0.79749089  0.96178950     0.11100
H708        H  0.13085888  0.77829956  0.99007727     0.07700
C709        C  0.19236972  0.42765783  0.09303456    -0.11400
C710        C  0.18206059  0.40333780  0.08352475     0.05700
C711        C  0.16697715  0.38721321  0.10092881    -0.10200
C712        C  0.16353535  0.39451668  0.12762364    -0.11800
C713        C  0.17508957  0.41812589  0.13751817    -0.01600
C714        C  0.18887423  0.43501141  0.11972461    -0.10700
C715        C  0.18878814  0.39359027  0.05634382     0.05700
H716        H  0.15899547  0.36821127  0.09430045     0.07600
H717        H  0.15280453  0.38105314  0.14075824     0.11100
H718        H  0.19797100  0.45339584  0.12664421     0.11400
H719        H  0.20373220  0.44067500  0.07999042     0.07700
C720        C  0.16980622  0.37959846  0.04118913    -0.11400
C721        C  0.17719500  0.36707852  0.01739725    -0.10700
C722        C  0.20366698  0.36847782  0.00810517    -0.01600
C723        C  0.22229183  0.38380077  0.02236047    -0.11800
C724        C  0.21495195  0.39614123  0.04634293    -0.10200
H725        H  0.14939805  0.37771100  0.04811521     0.07700
H726        H  0.16231721  0.35568743  0.00658891     0.11400
H727        H  0.24284345  0.38509090  0.01571113     0.11100
H728        H  0.23011928  0.40654093  0.05770843     0.07700
C729        C  0.10834719  0.54774694  0.17370720    -0.11400
C730        C  0.09557255  0.56398316  0.19277475     0.05700
C731        C  0.09326962  0.55441411  0.21913387    -0.10200
C732        C  0.10495918  0.52997980  0.22659165    -0.11800
C733        C  0.11937532  0.51472737  0.20789212    -0.01600
C734        C  0.12021628  0.52347592  0.18120052    -0.10700
C735        C  0.08727304  0.59184624  0.18592896     0.05700
H736        H  0.08379539  0.56652275  0.23438675     0.07600
H737        H  0.10410642  0.52386840  0.24733808     0.11100
H738        H  0.13094500  0.51202219  0.16626032     0.11400
H739        H  0.10999518  0.55427571  0.15313684     0.07700
C740        C  0.10390399  0.60794329  0.16997118    -0.11400
C741        C  0.09827241  0.63513760  0.16628491    -0.10700
C742        C  0.07581114  0.64693999  0.17838631    -0.01600
C743        C  0.05832357  0.63055773  0.19311020    -0.11800
C744        C  0.06406522  0.60332501  0.19694389    -0.10200
H745        H  0.12210734  0.59987545  0.16143526     0.07700
H746        H  0.11211153  0.64714388  0.15476073     0.11400
H747        H  0.04083999  0.63901529  0.20271064     0.11100
H748        H  0.05068648  0.59139134  0.20905972     0.07700
C749        C  0.29556901  0.39665054  0.18134601    -0.11400
C750        C  0.30761846  0.38282154  0.20273050     0.05700
C751        C  0.29778409  0.38705333  0.22874610    -0.10200
C752        C  0.27485341  0.40259084  0.23288207    -0.11800
C753        C  0.26174102  0.41453716  0.21117755    -0.01600
C754        C  0.27274440  0.41231962  0.18555435    -0.10700
C755        C  0.32757728  0.36131266  0.19740397     0.05700
H756        H  0.30686948  0.37706104  0.24569174     0.07600
H757        H  0.26628082  0.40370978  0.25272834     0.11100
H758        H  0.26243129  0.42088669  0.16850923     0.11400
H759        H  0.30238939  0.39361704  0.16104510     0.07700
C760        C  0.32570887  0.33675096  0.21106417    -0.11400
C761        C  0.34204800  0.31517432  0.20411378    -0.10700
C762        C  0.36078068  0.31754901  0.18334450    -0.01600
C763        C  0.36337743  0.34233188  0.17021899    -0.11800
C764        C  0.34684054  0.36397431  0.17709698    -0.10200
H765        H  0.31080196  0.33376202  0.22644948     0.07700
H766        H  0.33972555  0.29645562  0.21483856     0.11400
H767        H  0.37774823  0.34481141  0.15423435     0.11100
H768        H  0.34889202  0.38268147  0.16631592     0.07700
C769        C  0.93322657  0.69998601  0.14000845    -0.11400
C770        C  0.92896954  0.70085495  0.11225061     0.05700
C771        C  0.94995856  0.70974606  0.09573312    -0.10200
C772        C  0.97419003  0.71833187  0.10678950    -0.11800
C773        C  0.97811258  0.71784554  0.13458643    -0.01600
C774        C  0.95748688  0.70816689  0.15097392    -0.10700
C775        C  0.90208325  0.69444301  0.10109375     0.05700
H776        H  0.94762626  0.71030650  0.07424084     0.07600
H777        H  0.98976638  0.72548143  0.09360631     0.11100
H778        H  0.95972540  0.70770516  0.17249823     0.11400
H779        H  0.91746957  0.69394475  0.15350360     0.07700
C780        C  0.88553073  0.67532545  0.11350163    -0.11400
C781        C  0.85881410  0.67249615  0.10580456    -0.10700
C782        C  0.84815016  0.68836773  0.08517231    -0.01600
C783        C  0.86519157  0.70598984  0.07142968    -0.11800
C784        C  0.89175545  0.70913431  0.07939662    -0.10200
H785        H  0.89297177  0.66304098  0.12975043     0.07700
H786        H  0.84631307  0.65848261  0.11655914     0.11400
H787        H  0.85762199  0.71856174  0.05544235     0.11100
H788        H  0.90365684  0.72422140  0.06947001     0.07700
C789        C  0.68783328  0.74602483  0.95842625    -0.11400
C790        C  0.66014122  0.74372316  0.96283409     0.05700
C791        C  0.65130812  0.73114857  0.98638670    -0.10200
C792        C  0.66963348  0.71986330  0.00426968    -0.11800
C793        C  0.69722457  0.72125298  0.99923117    -0.01600
C794        C  0.70615175  0.73509283  0.97651162    -0.10700
C795        C  0.64080091  0.75212692  0.94176816     0.05700
H796        H  0.63019189  0.72951845  0.99075776     0.07600
H797        H  0.66217138  0.70968145  0.02186905     0.11100
H798        H  0.72728610  0.73644980  0.97207217     0.11400
H799        H  0.69545210  0.75514856  0.94034641     0.07700
C800        C  0.64621348  0.77414933  0.92505927    -0.11400
C801        C  0.63049784  0.77912294  0.90248585    -0.10700
C802        C  0.60878792  0.76243058  0.89631444    -0.01600
C803        C  0.60209245  0.74175000  0.91413869    -0.11800
C804        C  0.61800886  0.73654689  0.93649829    -0.10200
H805        H  0.66315780  0.78700203  0.92887868     0.07700
H806        H  0.63600486  0.79542009  0.88927401     0.11400
H807        H  0.58558980  0.72843634  0.90989456     0.11100
H808        H  0.61331590  0.71923651  0.94867435     0.07700
C809        C  0.02703676  0.28954060  0.90287122    -0.11400
C810        C  0.04613123  0.30687274  0.89164678     0.05700
C811        C  0.04175761  0.31681010  0.86569567    -0.10200
C812        C  0.01941627  0.30899336  0.85105658    -0.11800
C813        C  0.00099683  0.29073817  0.86180097    -0.01600
C814        C  0.00478733  0.28143138  0.88804930    -0.10700
C815        C  0.07181058  0.31250704  0.90551845     0.05700
H816        H  0.05622951  0.32968377  0.85607690     0.07600
H817        H  0.01717922  0.31648835  0.83085835     0.11100
H818        H  0.99079584  0.26755470  0.89699460     0.11400
H819        H  0.02952105  0.28182502  0.92295098     0.07700
C820        C  0.08519450  0.33694393  0.90141785    -0.11400
C821        C  0.11178649  0.33994554  0.90933229    -0.10700
C822        C  0.12528903  0.31881095  0.92208731    -0.01600
C823        C  0.11113740  0.29546734  0.92867618    -0.11800
C824        C  0.08474013  0.29223243  0.92027056    -0.10200
H825        H  0.07556991  0.35330772  0.89087029     0.07700
H826        H  0.12218476  0.35827419  0.90430004     0.11400
H827        H  0.12112593  0.27876509  0.93835085     0.11100
H828        H  0.07525975  0.27306993  0.92365240     0.07700
C829        C  0.84484914  0.15098398  0.80864114    -0.11400
C830        C  0.83287648  0.15329845  0.78328721     0.05700
C831        C  0.84148144  0.17361605  0.76588061    -0.10200
C832        C  0.85936438  0.19298214  0.77466520    -0.11800
C833        C  0.86951589  0.19196613  0.80073341    -0.01600
C834        C  0.86327030  0.17017262  0.81726347    -0.10700
C835        C  0.80844371  0.13795744  0.77685501     0.05700
H836        H  0.83305143  0.17551649  0.74603489     0.07600
H837        H  0.86440810  0.20946035  0.76147896     0.11100
H838        H  0.87103712  0.16910564  0.83743373     0.11400
H839        H  0.83848303  0.13561707  0.82252470     0.07700
C840        C  0.80569621  0.11083754  0.78400036    -0.11400
C841        C  0.78094384  0.09804739  0.78137313    -0.10700
C842        C  0.75860869  0.11237647  0.77194931    -0.01600
C843        C  0.76182198  0.13901256  0.76354232    -0.11800
C844        C  0.78639663  0.15163149  0.76596209    -0.10200
H845        H  0.82243827  0.09982600  0.79231752     0.07700
H846        H  0.77897287  0.07744513  0.78791085     0.11400
H847        H  0.74504086  0.15047975  0.75591082     0.11100
H848        H  0.78767737  0.17263921  0.76065282     0.07700
C849        C  0.83867887  0.27304688  0.92680956    -0.11400
C850        C  0.84295962  0.25111100  0.94397157     0.05700
C851        C  0.86521610  0.23439394  0.93937577    -0.10200
C852        C  0.88186224  0.23862775  0.91734627    -0.11800
C853        C  0.87646639  0.25949019  0.89923127    -0.01600
C854        C  0.85514879  0.27710330  0.90462979    -0.10700
C855        C  0.82318530  0.24430807  0.96514871     0.05700
H856        H  0.86897979  0.21710289  0.95193200     0.07600
H857        H  0.89794835  0.22454926  0.91362170     0.11100
H858        H  0.85057010  0.29348446  0.89113175     0.11400
H859        H  0.82211392  0.28666540  0.93007196     0.07700
C860        C  0.83151144  0.23268635  0.98937415    -0.11400
C861        C  0.81276409  0.22312266  0.00771486    -0.10700
C862        C  0.78523280  0.22521949  0.00242112    -0.01600
C863        C  0.77683517  0.23818868  0.97895576    -0.11800
C864        C  0.79559433  0.24747729  0.96044734    -0.10200
H865        H  0.85255118  0.23043971  0.99392494     0.07700
H866        H  0.81985513  0.21349693  0.02580032     0.11400
H867        H  0.75577409  0.23995743  0.97424946     0.11100
H868        H  0.78839745  0.25597499  0.94186885     0.07700
C869        C  0.77088997  0.60757255  0.94847194    -0.11400
C870        C  0.79658140  0.61236927  0.93816148     0.05700
C871        C  0.81454861  0.62770286  0.95331753    -0.10200
C872        C  0.80642604  0.63961013  0.97721356    -0.11800
C873        C  0.78019107  0.63628146  0.98664640    -0.01600
C874        C  0.76280194  0.61934930  0.97251935    -0.10700
C875        C  0.80356992  0.60406894  0.91050726     0.05700
H876        H  0.83465972  0.63129690  0.94618963     0.07600
H877        H  0.82043725  0.65221033  0.98782003     0.11100
H878        H  0.74245408  0.61638442  0.97924547     0.11400
H879        H  0.75650378  0.59602655  0.93720710     0.07700
C880        C  0.79529968  0.57927994  0.90009582    -0.11400
C881        C  0.79948473  0.57311231  0.87310941    -0.10700
C882        C  0.81183430  0.59172109  0.85597089    -0.01600
C883        C  0.82099932  0.61601337  0.86671410    -0.11800
C884        C  0.81693110  0.62209374  0.89358842    -0.10200
H885        H  0.78513456  0.56489421  0.91269385     0.07700
H886        H  0.79210959  0.55424853  0.86546520     0.11400
H887        H  0.83055073  0.63083778  0.85412850     0.11100
H888        H  0.82318513  0.64152871  0.90080375     0.07700
C889        C  0.89463644  0.45735159  0.77646146    -0.11400
C890        C  0.88632275  0.44525703  0.80049439     0.05700
C891        C  0.86863183  0.45937039  0.81717190    -0.10200
C892        C  0.85805314  0.48402531  0.80916836    -0.11800
C893        C  0.86518238  0.49535113  0.78446656    -0.01600
C894        C  0.88429286  0.48224634  0.76860941    -0.10700
C895        C  0.89407140  0.41714224  0.80689225     0.05700
H896        H  0.86232933  0.45099661  0.83610094     0.07600
H897        H  0.84362718  0.49387432  0.82199821     0.11100
H898        H  0.89004987  0.49044607  0.74942211     0.11400
H899        H  0.90801094  0.44695707  0.76297099     0.07700
C900        C  0.87527039  0.39949260  0.81811687    -0.11400
C901        C  0.88119415  0.37229128  0.82114676    -0.10700
C902        C  0.90598991  0.36198641  0.81281601    -0.01600
C903        C  0.92531408  0.37983604  0.80289517    -0.11800
C904        C  0.91943236  0.40710927  0.80001252    -0.10200
H905        H  0.85540004  0.40636867  0.82330674     0.07700
H906        H  0.86579769  0.35913705  0.82877462     0.11400
H907        H  0.94468293  0.37260060  0.79641640     0.11100
H908        H  0.93454495  0.42022647  0.79178885     0.07700
C909        C  0.70569403  0.64873962  0.75450050    -0.11400
C910        C  0.68847798  0.64498734  0.77640368     0.05700
C911        C  0.69364901  0.62368091  0.79417555    -0.10200
C912        C  0.71662447  0.60791698  0.79124967    -0.11800
C913        C  0.73497074  0.61356150  0.77086462    -0.01600
C914        C  0.72893105  0.63347146  0.75201041    -0.10700
C915        C  0.66721987  0.66502763  0.78228345     0.05700
H916        H  0.68098822  0.62028122  0.81135231     0.07600
H917        H  0.72107911  0.59272529  0.80611600     0.11100
H918        H  0.74273832  0.63790922  0.73595341     0.11400
H919        H  0.70186905  0.66433085  0.73989775     0.07700
C920        C  0.67183326  0.69230684  0.77699450    -0.11400
C921        C  0.65311851  0.71168689  0.78417073    -0.10700
C922        C  0.62934696  0.70444376  0.79718349    -0.01600
C923        C  0.62441578  0.67716430  0.80221082    -0.11800
C924        C  0.64314167  0.65763398  0.79476275    -0.10200
H925        H  0.69039028  0.69894220  0.76810992     0.07700
H926        H  0.65766533  0.73248839  0.78004012     0.11400
H927        H  0.60620618  0.67091439  0.81207676     0.11100
H928        H  0.63880947  0.63679589  0.79889530     0.07700
C929        C  0.15483215  0.70280075  0.34392585    -0.11400
C930        C  0.16306780  0.70989750  0.31792496     0.05700
C931        C  0.19047071  0.70824425  0.31178572    -0.10200
C932        C  0.20907895  0.70038818  0.33103556    -0.11800
C933        C  0.20093797  0.69342812  0.35698662    -0.01600
C934        C  0.17355191  0.69448631  0.36319637    -0.10700
C935        C  0.14349243  0.71819391  0.29681857     0.05700
H936        H  0.19767913  0.71257581  0.29187492     0.07600
H937        H  0.22996344  0.69945517  0.32540492     0.11100
H938        H  0.16666400  0.68937143  0.38305693     0.11400
H939        H  0.13397451  0.70398604  0.34954426     0.07700
C940        C  0.11776706  0.70686048  0.29548961    -0.11400
C941        C  0.10092645  0.71212720  0.27366972    -0.10700
C942        C  0.10955792  0.72855392  0.25255218    -0.01600
C943        C  0.13452389  0.74117226  0.25467632    -0.11800
C944        C  0.15110731  0.73629693  0.27660942    -0.10200
H945        H  0.11113002  0.69277315  0.31051856     0.07700
H946        H  0.08181735  0.70204109  0.27257307     0.11400
H947        H  0.14161347  0.75427761  0.23895893     0.11100
H948        H  0.17026596  0.74628752  0.27732326     0.07700
C949        C  0.26537143  0.57222642  0.33910216    -0.11400
C950        C  0.24408165  0.55522934  0.34608489     0.05700
C951        C  0.23231930  0.55820953  0.37143509    -0.10200
C952        C  0.24004787  0.57903695  0.38833035    -0.11800
C953        C  0.25941916  0.59765043  0.38012770    -0.01600
C954        C  0.27283769  0.59331125  0.35584862    -0.10700
C955        C  0.23244844  0.53636687  0.32618642     0.05700
H956        H  0.21580071  0.54569049  0.37757018     0.07600
H957        H  0.22927750  0.58176434  0.40689677     0.11100
H958        H  0.28806212  0.60710725  0.34905219     0.11400
H959        H  0.27553598  0.56998849  0.32015059     0.07700
C960        C  0.23140328  0.54339815  0.29894324    -0.11400
C961        C  0.21863687  0.52687178  0.28044819    -0.10700
C962        C  0.20616897  0.50314063  0.28877779    -0.01600
C963        C  0.20738799  0.49587597  0.31588556    -0.11800
C964        C  0.22056581  0.51216997  0.33433138    -0.10200
H965        H  0.23969485  0.56213695  0.29192228     0.07700
H966        H  0.21790979  0.53305140  0.25970991     0.11400
H967        H  0.19826524  0.47748207  0.32283361     0.11100
H968        H  0.22132795  0.50581210  0.35499821     0.07700
C969        C  0.27659188  0.84863104  0.33195162    -0.11400
C970        C  0.29852007  0.84241764  0.34832099     0.05700
C971        C  0.32256218  0.85647714  0.34488116    -0.10200
C972        C  0.32492918  0.87574505  0.32466421    -0.11800
C973        C  0.30351215  0.88062706  0.30716720    -0.01600
C974        C  0.27916207  0.86734298  0.31134303    -0.10700
C975        C  0.29724776  0.81879072  0.36611011     0.05700
H976        H  0.33976159  0.85181902  0.35721787     0.07600
H977        H  0.34396392  0.88556510  0.32165101     0.11100
H978        H  0.26238605  0.87079028  0.29806623     0.11400
H979        H  0.25799107  0.83778493  0.33404559     0.07700
C980        C  0.27651027  0.81584068  0.38480971    -0.11400
C981        C  0.27337496  0.79165006  0.39874210    -0.10700
C982        C  0.29047959  0.76990341  0.39350837    -0.01600
C983        C  0.31172752  0.77328464  0.37548278    -0.11800
C984        C  0.31522788  0.79756113  0.36211512    -0.10200
H985        H  0.26236350  0.83199851  0.38805583     0.07700
H986        H  0.25683143  0.78948490  0.41251150     0.11400
H987        H  0.32532457  0.75687602  0.37125979     0.11100
H988        H  0.33116801  0.79929520  0.34758899     0.07700
C989        C  0.40019634  0.66870261  0.40051222    -0.11400
C990        C  0.41350233  0.69320197  0.40436862     0.05700
C991        C  0.40038905  0.71357446  0.41877412    -0.10200
C992        C  0.37391703  0.71031564  0.42709358    -0.11800
C993        C  0.35988530  0.68681369  0.42081101    -0.01600
C994        C  0.37358640  0.66565184  0.40837594    -0.10700
C995        C  0.43938711  0.69864680  0.39069143     0.05700
H996        H  0.40982379  0.73278466  0.42198060     0.07600
H997        H  0.36380286  0.72705579  0.43649026     0.11100
H998        H  0.36332134  0.64720665  0.40354206     0.11400
H999        H  0.40992749  0.65227345  0.39023962     0.07700
C1000       C  0.45851228  0.71586834  0.40197006    -0.11400
C1001       C  0.48102503  0.72367969  0.38733172    -0.10700
C1002       C  0.48501201  0.71430462  0.36114128    -0.01600
C1003       C  0.46659676  0.69607078  0.35040772    -0.11800
C1004       C  0.44404093  0.68847317  0.36490392    -0.10200
H1005       H  0.45582517  0.72376819  0.42192034     0.07700
H1006       H  0.49492665  0.73761035  0.39628889     0.11400
H1007       H  0.46894721  0.68850572  0.33027663     0.11100
H1008       H  0.42959173  0.67562326  0.35525917     0.07700
C1009       C  0.59307458  0.70818464  0.17679034    -0.11400
C1010       C  0.61782842  0.72070509  0.17204063     0.05700
C1011       C  0.62758998  0.73891423  0.19105755    -0.10200
C1012       C  0.61412638  0.74294213  0.21500239    -0.11800
C1013       C  0.59055210  0.72890924  0.22063967    -0.01600
C1014       C  0.57944112  0.71235834  0.20092880    -0.10700
C1015       C  0.63542623  0.71254365  0.14951939     0.05700
H1016       H  0.64669679  0.74866455  0.18842342     0.07600
H1017       H  0.62300205  0.75597851  0.22983221     0.11100
H1018       H  0.56128129  0.70130242  0.20488745     0.11400
H1019       H  0.58486218  0.69430538  0.16238137     0.07700
C1020       C  0.63793824  0.68533189  0.14242367    -0.11400
C1021       C  0.65889975  0.67679948  0.12593526    -0.10700
C1022       C  0.67786464  0.69527100  0.11679056    -0.01600
C1023       C  0.67427592  0.72260407  0.12217711    -0.11800
C1024       C  0.65300992  0.73121336  0.13799529    -0.10200
H1025       H  0.62491454  0.67037409  0.15107002     0.07700
H1026       H  0.66134089  0.65560910  0.12185529     0.11400
H1027       H  0.68844832  0.73722187  0.11480089     0.11100
H1028       H  0.65120689  0.75238999  0.14239620     0.07700
C1029       C  0.46251172  0.81293785  0.24047305    -0.11400
C1030       C  0.45422553  0.83565746  0.25497167     0.05700
C1031       C  0.46512418  0.83984391  0.28051376    -0.10200
C1032       C  0.48358078  0.82179838  0.29136640    -0.11800
C1033       C  0.49154350  0.79886678  0.27711245    -0.01600
C1034       C  0.48089824  0.79471403  0.25144817    -0.10700
C1035       C  0.43307288  0.85407152  0.24453487     0.05700
H1036       H  0.45879341  0.85670368  0.29257034     0.07600
H1037       H  0.49117002  0.82556353  0.31126115     0.11100
H1038       H  0.48670205  0.77732984  0.23986483     0.11400
H1039       H  0.45473790  0.80918790  0.22065688     0.07700
C1040       C  0.43363558  0.88166884  0.25036493    -0.11400
C1041       C  0.41167509  0.89813372  0.24450501    -0.10700
C1042       C  0.38865214  0.88741167  0.23256177    -0.01600
C1043       C  0.38900673  0.86031852  0.22472872    -0.11800
C1044       C  0.41088927  0.84384748  0.23070972    -0.10200
H1045       H  0.45069616  0.89038627  0.26038011     0.07700
H1046       H  0.41219524  0.91891363  0.25068551     0.11400
H1047       H  0.37166806  0.85133416  0.21543999     0.11100
H1048       H  0.40963171  0.82272859  0.22597694     0.07700
C1049       C  0.55770210  0.16180807  0.76585521    -0.11400
C1050       C  0.53694973  0.15147926  0.75003205     0.05700
C1051       C  0.53875261  0.12463908  0.74149542    -0.10200
C1052       C  0.56198944  0.10960232  0.74602954    -0.11800
C1053       C  0.58385323  0.12099999  0.75942384    -0.01600
C1054       C  0.58083313  0.14671478  0.77056776    -0.10700
C1055       C  0.51579531  0.16968477  0.73923502     0.05700
H1056       H  0.52277879  0.11571353  0.72998435     0.07600
H1057       H  0.56342688  0.08970035  0.73754578     0.11100
H1058       H  0.59712657  0.15602523  0.78131085     0.11400
H1059       H  0.55711236  0.18232832  0.77281651     0.07700
C1060       C  0.50573025  0.19141051  0.75417567    -0.11400
C1061       C  0.48878207  0.21051481  0.74230562    -0.10700
C1062       C  0.48155762  0.20828324  0.71525318    -0.01600
C1063       C  0.49078211  0.18597919  0.70074213    -0.11800
C1064       C  0.50765603  0.16705559  0.71250335    -0.10200
H1065       H  0.51135201  0.19393644  0.77489383     0.07700
H1066       H  0.48187480  0.22732804  0.75411462     0.11400
H1067       H  0.48558880  0.18344322  0.67990294     0.11100
H1068       H  0.51533878  0.15102743  0.70011102     0.07700
C1069       C  0.36771391  0.29601493  0.80044464    -0.11400
C1070       C  0.34075459  0.28800375  0.80061694     0.05700
C1071       C  0.33052317  0.27496429  0.77794372    -0.10200
C1072       C  0.34641122  0.27097943  0.75540701    -0.11800
C1073       C  0.37295265  0.28010629  0.75474657    -0.01600
C1074       C  0.38364597  0.29211274  0.77774993    -0.10700
C1075       C  0.32278853  0.29443495  0.82351312     0.05700
H1076       H  0.30981169  0.26885064  0.77703705     0.07600
H1077       H  0.33750809  0.26158587  0.73808215     0.11100
H1078       H  0.40401249  0.29937693  0.77789380     0.11400
H1079       H  0.37642363  0.30567879  0.81770578     0.07700
C1080       C  0.30177865  0.27707983  0.83038943    -0.11400
C1081       C  0.28299271  0.28445043  0.84964142    -0.10700
C1082       C  0.28500076  0.30913130  0.86292860    -0.01600
C1083       C  0.30669311  0.32593850  0.85718738    -0.11800
C1084       C  0.32528518  0.31877390  0.83751893    -0.10200
H1085       H  0.29957242  0.25787442  0.82061746     0.07700
H1086       H  0.26669569  0.27088986  0.85397372     0.11400
H1087       H  0.30863739  0.34513202  0.86706966     0.11100
H1088       H  0.34095366  0.33282711  0.83257188     0.07700
C1089       C  0.36917020  0.46127318  0.67610427    -0.11400
C1090       C  0.38564230  0.44677881  0.69377951     0.05700
C1091       C  0.39151488  0.45795956  0.71888425    -0.10200
C1092       C  0.37968092  0.48212419  0.72679305    -0.11800
C1093       C  0.36149302  0.49533952  0.70988358    -0.01600
C1094       C  0.35702780  0.48513764  0.68416679    -0.10700
C1095       C  0.39389716  0.41885507  0.68734403     0.05700
H1096       H  0.40391678  0.44726020  0.73309787     0.07600
H1097       H  0.38342516  0.48953042  0.74675959     0.11100
H1098       H  0.34341401  0.49517135  0.67056531     0.11400
H1099       H  0.36480610  0.45362758  0.65636559     0.07700
C1100       C  0.37586794  0.40175450  0.67430525    -0.11400
C1101       C  0.38173629  0.37465030  0.67106456    -0.10700
C1102       C  0.40573353  0.36376285  0.68095686    -0.01600
C1103       C  0.42440439  0.38101423  0.69288326    -0.11800
C1104       C  0.41853646  0.40831025  0.69605613    -0.10200
H1105       H  0.35650926  0.40896367  0.66773858     0.07700
H1106       H  0.36688471  0.36202506  0.66172067     0.11400
H1107       H  0.44311343  0.37326809  0.70065443     0.11100
H1108       H  0.43300353  0.42101598  0.70586741     0.07700
C1109       C  0.31283239  0.62154022  0.60170258    -0.11400
C1110       C  0.29877216  0.60464426  0.58421709     0.05700
C1111       C  0.28936254  0.57997380  0.59402355    -0.10200
C1112       C  0.29303292  0.57291475  0.62093076    -0.11800
C1113       C  0.30597081  0.59050051  0.63866299    -0.01600
C1114       C  0.31635684  0.61459211  0.62851256    -0.10700
C1115       C  0.29259729  0.61389602  0.55652767     0.05700
H1116       H  0.27870355  0.56638007  0.58101841     0.07600
H1117       H  0.28470302  0.55423073  0.62807757     0.11100
H1118       H  0.32639774  0.62864633  0.64153362     0.11400
H1119       H  0.32006787  0.64083902  0.59499026     0.07700
C1120       C  0.26700099  0.61029792  0.54539270    -0.11400
C1121       C  0.26009631  0.62253159  0.52105748    -0.10700
C1122       C  0.27859160  0.63875603  0.50748086    -0.01600
C1123       C  0.30458930  0.64105553  0.51789813    -0.11800
C1124       C  0.31152883  0.62869416  0.54199713    -0.10200
H1125       H  0.25187114  0.59918189  0.55613539     0.07700
H1126       H  0.23991731  0.62036578  0.51355795     0.11400
H1127       H  0.31947659  0.65301775  0.50771011     0.11100
H1128       H  0.33158065  0.63137284  0.54966607     0.07700
C1129       C  0.27701266  0.47997061  0.83234128    -0.11400
C1130       C  0.25092541  0.47050772  0.82799040     0.05700
C1131       C  0.23686528  0.47983517  0.80542764    -0.10200
C1132       C  0.24885628  0.49761390  0.78737077    -0.11800
C1133       C  0.27511964  0.50663503  0.79153376    -0.01600
C1134       C  0.28888776  0.49785607  0.81445479    -0.10700
C1135       C  0.23939924  0.44963126  0.84596033     0.05700
H1136       H  0.21663954  0.47325609  0.80160962     0.07600
H1137       H  0.23760421  0.50414969  0.77003607     0.11100
H1138       H  0.30918472  0.50424935  0.81826730     0.11400
H1139       H  0.28870774  0.47285522  0.84913626     0.07700
C1140       C  0.22440381  0.42835993  0.83536407    -0.11400
C1141       C  0.21711423  0.40659572  0.85140524    -0.10700
C1142       C  0.22475097  0.40547548  0.87843506    -0.01600
C1143       C  0.23802523  0.42763071  0.88950340    -0.11800
C1144       C  0.24521796  0.44945822  0.87347360    -0.10200
H1145       H  0.21967084  0.42766514  0.81427341     0.07700
H1146       H  0.20686930  0.38992441  0.84218581     0.11400
H1147       H  0.24408203  0.42754947  0.91027605     0.11100
H1148       H  0.25614455  0.46580469  0.88246945     0.07700
C1149       C  0.27957308  0.66515878  0.82962629    -0.11400
C1150       C  0.29367641  0.66219778  0.85366813     0.05700
C1151       C  0.31297822  0.64181351  0.85598251    -0.10200
C1152       C  0.31843975  0.62499058  0.83428969    -0.11800
C1153       C  0.30513106  0.62881654  0.80984257    -0.01600
C1154       C  0.28535529  0.64877334  0.80788669    -0.10700
C1155       C  0.29031040  0.68263073  0.87467914     0.05700
H1156       H  0.32418847  0.63935176  0.87432913     0.07600
H1157       H  0.33378609  0.60974485  0.83628686     0.11100
H1158       H  0.27462240  0.65202093  0.78936479     0.11400
H1159       H  0.26491419  0.68102763  0.82724216     0.07700
C1160       C  0.31262644  0.69720091  0.88332577    -0.11400
C1161       C  0.30913995  0.72093642  0.89761287    -0.10700
C1162       C  0.28337212  0.73001161  0.90393535    -0.01600
C1163       C  0.26116203  0.71437565  0.89732761    -0.11800
C1164       C  0.26460302  0.69082268  0.88262946    -0.10200
H1165       H  0.33257550  0.69147061  0.87710676     0.07700
H1166       H  0.32642115  0.73310783  0.90225435     0.11400
H1167       H  0.24113452  0.72143824  0.90169672     0.11100
H1168       H  0.24714499  0.67987627  0.87605646     0.07700
C1169       C  0.42273834  0.66089022  0.72278299    -0.11400
C1170       C  0.44199791  0.65489599  0.74243329     0.05700
C1171       C  0.43910858  0.63109660  0.75729263    -0.10200
C1172       C  0.41677204  0.61471784  0.75383291    -0.11800
C1173       C  0.39653824  0.62182772  0.73564430    -0.01600
C1174       C  0.40021935  0.64464275  0.71952789    -0.10700
C1175       C  0.46345173  0.67445919  0.74932874     0.05700
H1176       H  0.45323847  0.62584633  0.77282715     0.07600
H1177       H  0.41462092  0.59733177  0.76662422     0.11100
H1178       H  0.38515421  0.65060229  0.70513854     0.11400
H1179       H  0.42459185  0.67863046  0.71045331     0.07700
C1180       C  0.48832036  0.66566458  0.75924197    -0.11400
C1181       C  0.50676342  0.68396040  0.76953234    -0.10700
C1182       C  0.50099401  0.71155814  0.76979894    -0.01600
C1183       C  0.47692599  0.72053408  0.75835929    -0.11800
C1184       C  0.45832098  0.70222521  0.74841893    -0.10200
H1185       H  0.49332429  0.64454535  0.75967863     0.07700
H1186       H  0.52528730  0.67640695  0.77789436     0.11400
H1187       H  0.47181906  0.74164652  0.75831400     0.11100
H1188       H  0.43932430  0.70986469  0.74134176     0.07700
C1189       C  0.63544178  0.56170486  0.30359260    -0.11400
C1190       C  0.60810501  0.56645377  0.29885396     0.05700
C1191       C  0.59267217  0.54566557  0.28787381    -0.10200
C1192       C  0.60455494  0.52137302  0.28045471    -0.11800
C1193       C  0.63210235  0.51716821  0.28415940    -0.01600
C1194       C  0.64722540  0.53733622  0.29650020    -0.10700
C1195       C  0.59651387  0.59368142  0.30316147     0.05700
H1196       H  0.57144616  0.54831985  0.28449742     0.07600
H1197       H  0.59225913  0.50611684  0.27131877     0.11100
H1198       H  0.66850877  0.53478891  0.29966659     0.11400
H1199       H  0.64814610  0.57724848  0.31157599     0.07700
C1200       C  0.60620983  0.61043255  0.32356391    -0.11400
C1201       C  0.59841202  0.63733710  0.32487906    -0.10700
C1202       C  0.58022948  0.64790501  0.30624196    -0.01600
C1203       C  0.56911374  0.63081812  0.28701551    -0.11800
C1204       C  0.57733799  0.60408543  0.28531210    -0.10200
H1205       H  0.62045255  0.60298866  0.33810431     0.07700
H1206       H  0.60708040  0.65005042  0.34006720     0.11400
H1207       H  0.55524147  0.63853148  0.27222698     0.11100
H1208       H  0.56969258  0.59206833  0.26908150     0.07700
C1209       C  0.68373122  0.36885395  0.14127643    -0.11400
C1210       C  0.68368521  0.34114524  0.14614240     0.05700
C1211       C  0.67347614  0.33138224  0.17030377    -0.10200
C1212       C  0.66502801  0.34893173  0.19005983    -0.11800
C1213       C  0.66667579  0.37676452  0.18620034    -0.01600
C1214       C  0.67531161  0.38665138  0.16129791    -0.10700
C1215       C  0.69573484  0.32181508  0.12745238     0.05700
H1216       H  0.67283246  0.31001970  0.17420780     0.07600
H1217       H  0.65808253  0.34059530  0.20879392     0.11100
H1218       H  0.67672691  0.40801828  0.15777247     0.11400
H1219       H  0.69143282  0.37667663  0.12262313     0.07700
C1220       C  0.68511122  0.31784429  0.10181486    -0.11400
C1221       C  0.69221103  0.29492336  0.08721003    -0.10700
C1222       C  0.70980491  0.27591780  0.09833627    -0.01600
C1223       C  0.72219939  0.28135572  0.12283162    -0.11800
C1224       C  0.71531687  0.30415761  0.13719747    -0.10200
H1225       H  0.66988465  0.33124929  0.09407270     0.07700
H1226       H  0.68229168  0.29094042  0.06840792     0.11400
H1227       H  0.73595435  0.26703504  0.13167236     0.11100
H1228       H  0.72389145  0.30705980  0.15685558     0.07700
C1229       C  0.52119058  0.31375819  0.24365840    -0.11400
C1230       C  0.51620542  0.34145648  0.24135748     0.05700
C1231       C  0.49279253  0.34992114  0.22815166    -0.10200
C1232       C  0.47579383  0.33130019  0.21610745    -0.11800
C1233       C  0.48152651  0.30373080  0.21738415    -0.01600
C1234       C  0.50396207  0.29513299  0.23198027    -0.10700
C1235       C  0.53678531  0.36122011  0.24998985     0.05700
H1236       H  0.48793000  0.37101583  0.22649649     0.07600
H1237       H  0.45839583  0.33852617  0.20537684     0.11100
H1238       H  0.50893118  0.27402725  0.23331462     0.11400
H1239       H  0.53915944  0.30640238  0.25328005    -0.25900
C1240       C  0.55346746  0.35614644  0.27211239    -0.11400
C1241       C  0.57585948  0.37220535  0.27701013    -0.10700
C1242       C  0.58192618  0.39380356  0.26000002    -0.01600
C1243       C  0.56396983  0.40018530  0.23931737    -0.11800
C1244       C  0.54181727  0.38404901  0.23428868    -0.10200
H1245       H  0.54985877  0.33911680  0.28502369     0.07700
H1246       H  0.58918515  0.36678968  0.29320313     0.11400
H1247       H  0.56795450  0.41665444  0.22578742     0.11100
H1248       H  0.52971340  0.38854998  0.21691981     0.07700
C1249       C  0.75297473  0.57658699  0.15592024    -0.11400
C1250       C  0.74302805  0.55320303  0.14403945     0.05700
C1251       C  0.73868814  0.55296980  0.11626309    -0.10200
C1252       C  0.74253112  0.57621359  0.10103376    -0.11800
C1253       C  0.75080483  0.60010306  0.11331344    -0.01600
C1254       C  0.75686770  0.59971331  0.14076126    -0.10700
C1255       C  0.73395426  0.53070769  0.16120747     0.05700
H1256       H  0.73131556  0.53511148  0.10651198     0.07600
H1257       H  0.73786977  0.57577812  0.07991105     0.11100
H1258       H  0.76332319  0.61769910  0.15092719     0.11400
H1259       H  0.75619100  0.57757039  0.17729075     0.07700
C1260       C  0.74839461  0.52311404  0.18415676    -0.11400
C1261       C  0.73731150  0.50537094  0.20278446    -0.10700
C1262       C  0.71153197  0.49501926  0.19884951    -0.01600
C1263       C  0.69784927  0.50140978  0.17510617    -0.11800
C1264       C  0.70892305  0.51900839  0.15653308    -0.10200
H1265       H  0.76787774  0.53159868  0.18812243     0.07700
H1266       H  0.74846635  0.50063554  0.22073921     0.11400
H1267       H  0.67807340  0.49357042  0.17125458     0.11100
H1268       H  0.69713735  0.52464261  0.13924964     0.07700
C1269       C  0.69387925  0.43380927  0.39925076    -0.11400
C1270       C  0.68517973  0.40920160  0.40985079     0.05700
C1271       C  0.67311443  0.39058407  0.39269896    -0.10200
C1272       C  0.67038554  0.39601312  0.36556544    -0.11800
C1273       C  0.67976226  0.42019649  0.35467490    -0.01600
C1274       C  0.69112360  0.43930001  0.37189277    -0.10700
C1275       C  0.69038108  0.40154305  0.43806425     0.05700
H1276       H  0.66671540  0.37120871  0.40003442     0.07600
H1277       H  0.66159871  0.38076865  0.35297696     0.11100
H1278       H  0.69859777  0.45810501  0.36412901     0.11400
H1279       H  0.70316444  0.44858598  0.41201890     0.07700
C1280       C  0.71535932  0.40653856  0.44986402    -0.11400
C1281       C  0.72220675  0.39446548  0.47418259    -0.10700
C1282       C  0.70424511  0.37705592  0.48704340    -0.01600
C1283       C  0.67851950  0.37388134  0.47630131    -0.11800
C1284       C  0.67163042  0.38609405  0.45216490    -0.10200
H1285       H  0.73027788  0.41827526  0.43947467     0.07700
H1286       H  0.74213599  0.39747350  0.48202330     0.11400
H1287       H  0.66402889  0.36101818  0.48595915     0.11100
H1288       H  0.65197503  0.38244118  0.44390182     0.07700
C1289       C  0.54755804  0.31436381  0.64113433    -0.11400
C1290       C  0.55146718  0.31352650  0.61333898     0.05700
C1291       C  0.53057139  0.30391302  0.59714178    -0.10200
C1292       C  0.50683013  0.29446967  0.60855750    -0.11800
C1293       C  0.50332271  0.29472926  0.63640576    -0.01600
C1294       C  0.52377751  0.30525918  0.65247646    -0.10700
C1295       C  0.57801723  0.32055228  0.60178136     0.05700
H1296       H  0.53266440  0.30337255  0.57563027     0.07600
H1297       H  0.49133122  0.28676478  0.59560317     0.11100
H1298       H  0.52181364  0.30566731  0.67401802     0.11400
H1299       H  0.56329086  0.32106019  0.65434759     0.07700
C1300       C  0.59403783  0.34057678  0.61338608    -0.11400
C1301       C  0.62057943  0.34409802  0.60527447    -0.10700
C1302       C  0.63156442  0.32795726  0.58508225    -0.01600
C1303       C  0.61497176  0.30930161  0.57219150    -0.11800
C1304       C  0.58862547  0.30552370  0.58053737    -0.10200
H1305       H  0.58633975  0.35299819  0.62935706     0.07700
H1306       H  0.63275870  0.35878518  0.61546287     0.11400
H1307       H  0.62278425  0.29640015  0.55664649     0.11100
H1308       H  0.57713477  0.28971505  0.57129460     0.07700
C1309       C  0.71061269  0.16103862  0.66361878    -0.11400
C1310       C  0.69174904  0.16999225  0.64477349     0.05700
C1311       C  0.66623221  0.15814060  0.64456257    -0.10200
C1312       C  0.65913676  0.13938584  0.66428597    -0.11800
C1313       C  0.67737678  0.13263491  0.68455435    -0.01600
C1314       C  0.70339323  0.14290341  0.68347878    -0.10700
C1315       C  0.69768843  0.19422014  0.62848139     0.05700
H1316       H  0.65125095  0.16467457  0.63034344     0.07600
H1317       H  0.63895289  0.13162480  0.66477810     0.11100
H1318       H  0.71792563  0.13759697  0.69867139     0.11400
H1319       H  0.73064418  0.16919916  0.66388841     0.07700
C1320       C  0.71084558  0.21577412  0.64070528    -0.11400
C1321       C  0.71507355  0.23958105  0.62697173    -0.10700
C1322       C  0.70619508  0.24276722  0.60056228    -0.01600
C1323       C  0.69374259  0.22106554  0.58776527    -0.11800
C1324       C  0.68931702  0.19697150  0.60173621    -0.10200
H1325       H  0.71706701  0.21467210  0.66139595     0.07700
H1326       H  0.72481099  0.25588187  0.63738237     0.11400
H1327       H  0.68653423  0.22309470  0.56746536     0.11100
H1328       H  0.67913782  0.18067111  0.59180445     0.07700
C1329       C  0.84150693  0.32598209  0.64576007    -0.11400
C1330       C  0.84168609  0.29980322  0.65631777     0.05700
C1331       C  0.82240206  0.28145049  0.64727629    -0.10200
C1332       C  0.80189764  0.28973721  0.63029895    -0.11800
C1333       C  0.80084295  0.31624985  0.62115722    -0.01600
C1334       C  0.82134172  0.33405232  0.62804958    -0.10700
C1335       C  0.85909034  0.29273000  0.67937604     0.05700
H1336       H  0.82242169  0.26091123  0.65431934     0.07600
H1337       H  0.78650015  0.27558995  0.62473674     0.11100
H1338       H  0.82082549  0.35461537  0.62105098     0.11400
H1339       H  0.85588890  0.34067910  0.65240383     0.07700
C1340       C  0.88515356  0.30301907  0.68216939    -0.11400
C1341       C  0.89961248  0.29884424  0.70588349    -0.10700
C1342       C  0.88804420  0.28454691  0.72709622    -0.01600
C1343       C  0.86267805  0.27317881  0.72365455    -0.11800
C1344       C  0.84838366  0.27729206  0.70024679    -0.10200
H1345       H  0.89404479  0.31482012  0.66635895     0.07700
H1346       H  0.91913577  0.30786899  0.70813056     0.11400
H1347       H  0.85332651  0.26190295  0.73961554     0.11100
H1348       H  0.82824701  0.26949431  0.69921446     0.07700
C1349       C  0.76552331  0.45309491  0.62072962    -0.11400
C1350       C  0.74920612  0.45956130  0.64273454     0.05700
C1351       C  0.72574552  0.44459013  0.64682195    -0.10200
C1352       C  0.72004936  0.42237542  0.63081931    -0.11800
C1353       C  0.73731749  0.41502363  0.60995171    -0.01600
C1354       C  0.75949902  0.43125788  0.60439975    -0.10700
C1355       C  0.75811127  0.47988902  0.66267564     0.05700
H1356       H  0.71223719  0.44939266  0.66301075     0.07600
H1357       H  0.70266739  0.41033438  0.63541253     0.11100
H1358       H  0.77333582  0.42594545  0.58862181     0.11400
H1359       H  0.78393777  0.46376864  0.61700560     0.07700
C1360       C  0.75291764  0.47616124  0.69010574    -0.11400
C1361       C  0.76400106  0.49327325  0.70918539    -0.10700
C1362       C  0.78099985  0.51413209  0.70135303    -0.01600
C1363       C  0.78548880  0.51855697  0.67401780    -0.11800
C1364       C  0.77390524  0.50185592  0.65488534    -0.10200
H1365       H  0.74132437  0.45927360  0.69706701     0.07700
H1366       H  0.76034080  0.48936887  0.73016019     0.11400
H1367       H  0.79821850  0.53480096  0.66744937     0.11100
H1368       H  0.77782241  0.50588052  0.63400519     0.07700
C1369       C  0.83103800  0.31966314  0.26347849    -0.11400
C1370       C  0.82528433  0.34211126  0.27940358     0.05700
C1371       C  0.84029667  0.34621356  0.30281803    -0.10200
C1372       C  0.85921886  0.32720469  0.31111826    -0.11800
C1373       C  0.86318931  0.30368285  0.29627902    -0.01600
C1374       C  0.84961700  0.30057732  0.27191886    -0.10700
C1375       C  0.80153821  0.35905210  0.27343833     0.05700
H1376       H  0.83624765  0.36321426  0.31562409     0.07600
H1377       H  0.86950179  0.33012080  0.32992085     0.11100
H1378       H  0.85273526  0.28290157  0.25974981     0.11400
H1379       H  0.82036752  0.31628011  0.24498195     0.07700
C1380       C  0.80138682  0.38675519  0.27861936    -0.11400
C1381       C  0.77768861  0.40163789  0.27628062    -0.10700
C1382       C  0.75373138  0.38904028  0.26879084    -0.01600
C1383       C  0.75431870  0.36165347  0.26228448    -0.11800
C1384       C  0.77783949  0.34686953  0.26466919    -0.10200
H1385       H  0.81941437  0.39676387  0.28509982     0.07700
H1386       H  0.77793731  0.42274974  0.28127102     0.11400
H1387       H  0.73631874  0.35126987  0.25631051     0.11100
H1388       H  0.77704514  0.32552034  0.26091145     0.07700
C1389       C  0.82774409  0.23631843  0.42094192    -0.11400
C1390       C  0.83483662  0.25608593  0.43963763     0.05700
C1391       C  0.85980610  0.26871688  0.43698348    -0.10200
C1392       C  0.87674095  0.26253065  0.41569291    -0.11800
C1393       C  0.86900280  0.24385155  0.39624732    -0.01600
C1394       C  0.84456115  0.23038952  0.39939794    -0.10700
C1395       C  0.81576378  0.26486334  0.46078478     0.05700
H1396       H  0.86582951  0.28436820  0.45063648     0.07600
H1397       H  0.89528746  0.27348732  0.41370836     0.11100
H1398       H  0.83808157  0.21580107  0.38479762     0.11400
H1399       H  0.80894442  0.22578169  0.42263339     0.07700
C1400       C  0.78812891  0.26635291  0.45556546    -0.11400
C1401       C  0.77056899  0.27717804  0.47446764    -0.10700
C1402       C  0.78030701  0.28715378  0.49878504    -0.01600
C1403       C  0.80770974  0.28488749  0.50440781    -0.11800
C1404       C  0.82518024  0.27362082  0.48575947    -0.10200
H1405       H  0.78014487  0.26022975  0.43644928     0.07700
H1406       H  0.74955011  0.27891315  0.46953028     0.11400
H1407       H  0.81569990  0.29218128  0.52312982     0.11100
H1408       H  0.84619264  0.27221170  0.49077616     0.07700
C1409       C  0.01104307  0.33632214  0.28247803    -0.11400
C1410       C  0.02671856  0.32967079  0.26011510     0.05700
C1411       C  0.02254156  0.30460566  0.24784169    -0.10200
C1412       C  0.00390744  0.28641672  0.25820559    -0.11800
C1413       C  0.98866512  0.29301267  0.28082872    -0.01600
C1414       C  0.99218617  0.31836281  0.29254276    -0.10700
C1415       C  0.04838802  0.34809810  0.25088823     0.05700
H1416       H  0.03380090  0.29888757  0.23028467     0.07600
H1417       H  0.00154646  0.26714293  0.24859939     0.11100
H1418       H  0.98095867  0.32406646  0.31014275     0.11400
H1419       H  0.01394022  0.35505580  0.29292370     0.07700
C1420       C  0.04594488  0.37613284  0.25361547    -0.11400
C1421       C  0.06754340  0.39306242  0.24800581    -0.10700
C1422       C  0.09204001  0.38242632  0.23921310    -0.01600
C1423       C  0.09397858  0.35458796  0.23504721    -0.11800
C1424       C  0.07255865  0.33768058  0.24093726    -0.10200
H1425       H  0.02747403  0.38504445  0.26058761     0.07700
H1426       H  0.06528889  0.41439251  0.25134423     0.11400
H1427       H  0.11253539  0.34558972  0.22837914     0.11100
H1428       H  0.07551803  0.31629038  0.23887901     0.07700
C1429       C  0.87192390  0.18058260  0.19679919    -0.11400
C1430       C  0.86576635  0.20302031  0.18093479     0.05700
C1431       C  0.87678772  0.22802770  0.18768870    -0.10200
C1432       C  0.89234914  0.23081053  0.21078724    -0.11800
C1433       C  0.89674517  0.20868963  0.22754468    -0.01600
C1434       C  0.88701507  0.18347921  0.22006915    -0.10700
C1435       C  0.84515554  0.20075399  0.15975533     0.05700
H1436       H  0.87233280  0.24562285  0.17574914     0.07600
H1437       H  0.89924907  0.25050957  0.21657065     0.11100
H1438       H  0.88983684  0.16630216  0.23307603     0.11400
H1439       H  0.86343224  0.16118183  0.19228849     0.07700
C1440       C  0.84530397  0.17910613  0.14182484    -0.11400
C1441       C  0.82381373  0.17506692  0.12437251    -0.10700
C1442       C  0.80154341  0.19231791  0.12491191    -0.01600
C1443       C  0.80183566  0.21444127  0.14226473    -0.11800
C1444       C  0.82348002  0.21871583  0.15935423    -0.10200
H1445       H  0.86179610  0.16497291  0.14175952     0.07700
H1446       H  0.82414865  0.15785630  0.11123058     0.11400
H1447       H  0.78504788  0.22820108  0.14300932     0.11100
H1448       H  0.82266318  0.23535279  0.17319338     0.07700
C1449       C  0.29372482  0.14751328  0.72542750    -0.11400
C1450       C  0.31173993  0.13732483  0.70651065     0.05700
C1451       C  0.30818186  0.11129589  0.69663218    -0.10200
C1452       C  0.28517605  0.09684740  0.70336361    -0.11800
C1453       C  0.26560062  0.10844744  0.71992054    -0.01600
C1454       C  0.27084667  0.13322070  0.73207389    -0.10700
C1455       C  0.33050835  0.15593043  0.69355025     0.05700
H1456       H  0.32189038  0.10317095  0.68196581     0.07600
H1457       H  0.28164027  0.07772704  0.69380611     0.11100
H1458       H  0.25634626  0.14243189  0.74527923     0.11400
H1459       H  0.29632891  0.16748862  0.73346069     0.07700
C1460       C  0.32011618  0.17936487  0.68207318    -0.11400
C1461       C  0.33702186  0.19850027  0.67126509    -0.10700
C1462       C  0.36486604  0.19482436  0.67186156    -0.01600
C1463       C  0.37532927  0.17063384  0.68206443    -0.11800
C1464       C  0.35816057  0.15116269  0.69275377    -0.10200
H1465       H  0.29876026  0.18310371  0.68194288     0.07700
H1466       H  0.32820629  0.21668965  0.66329519     0.11400
H1467       H  0.39671488  0.16728679  0.68283286     0.11100
H1468       H  0.36645122  0.13299950  0.70130847     0.07700
C1469       C  0.20678949  0.15978795  0.83500851    -0.11400
C1470       C  0.18689558  0.16235456  0.85457262     0.05700
C1471       C  0.16435151  0.14568361  0.85354717    -0.10200
C1472       C  0.16131729  0.12736159  0.83262912    -0.11800
C1473       C  0.18040544  0.12614730  0.81212717    -0.01600
C1474       C  0.20341544  0.14206426  0.81377515    -0.10700
C1475       C  0.18805138  0.18510798  0.87329264     0.05700
H1476       H  0.14868968  0.14758819  0.86836296     0.07600
H1477       H  0.14331086  0.11542114  0.83155125     0.11100
H1478       H  0.21835062  0.14142606  0.79811798     0.11400
H1479       H  0.22412354  0.17273852  0.83523368     0.07700
C1480       C  0.21085646  0.18957297  0.88903468    -0.11400
C1481       C  0.21388246  0.21377038  0.90281674    -0.10700
C1482       C  0.19448862  0.23399451  0.90029562    -0.01600
C1483       C  0.17115579  0.22897631  0.88557397    -0.11800
C1484       C  0.16782853  0.20461402  0.87242012    -0.10200
H1485       H  0.22673760  0.17477160  0.88976988     0.07700
H1486       H  0.23206692  0.21734070  0.91398215     0.11400
H1487       H  0.15589419  0.24430944  0.88350208     0.11100
H1488       H  0.15025183  0.20169365  0.86014163     0.07700
C1489       C  0.05065750  0.13043395  0.76037617    -0.11400
C1490       C  0.04655986  0.15343846  0.74455793     0.05700
C1491       C  0.06459516  0.15868034  0.72364445    -0.10200
C1492       C  0.08717902  0.14249008  0.71994752    -0.11800
C1493       C  0.09203475  0.12047034  0.73685321    -0.01600
C1494       C  0.07299196  0.11406956  0.75644033    -0.10700
C1495       C  0.02519446  0.17305450  0.75170191     0.05700
H1496       H  0.06176068  0.17582995  0.71064829     0.07600
H1497       H  0.10137491  0.14785039  0.70453739     0.11100
H1498       H  0.07618880  0.09737503  0.76994913     0.11400
H1499       H  0.03753736  0.12586291  0.77692431     0.07700
C1500       C  0.00109574  0.16436339  0.76326033    -0.11400
C1501       C  0.98306250  0.18280984  0.77407685    -0.10700
C1502       C  0.98839800  0.21039743  0.77301934    -0.01600
C1503       C  0.01145861  0.21929270  0.75983555    -0.11800
C1504       C  0.02980589  0.20081919  0.74950656    -0.10200
H1505       H  0.99647943  0.14322143  0.76467085     0.07700
H1506       H  0.96517676  0.17547420  0.78378027     0.11400
H1507       H  0.01606387  0.24047543  0.75885755     0.11100
H1508       H  0.04824253  0.20834690  0.74111549     0.07700
C1509       C  0.25262559  0.97569926  0.80072372    -0.11400
C1510       C  0.24010324  0.96945332  0.82512960     0.05700
C1511       C  0.21621458  0.98276800  0.83172396    -0.10200
C1512       C  0.20463656  0.00109802  0.81407080    -0.11800
C1513       C  0.21654251  0.00661277  0.78923085    -0.01600
C1514       C  0.24097885  0.99409448  0.78296470    -0.10700
C1515       C  0.25020074  0.94741706  0.84258073     0.05700
H1516       H  0.20572800  0.97816587  0.85006955     0.07600
H1517       H  0.18587447  0.01040680  0.81966413     0.11100
H1518       H  0.25079136  0.99801841  0.76409424     0.11400
H1519       H  0.27120580  0.96603252  0.79515211     0.07700
C1520       C  0.25981357  0.92353661  0.83120659    -0.11400
C1521       C  0.26478857  0.90106068  0.84714659    -0.10700
C1522       C  0.26008146  0.90180375  0.87485368    -0.01600
C1523       C  0.25231243  0.92621566  0.88650654    -0.11800
C1524       C  0.24753614  0.94880587  0.87054694    -0.10200
H1525       H  0.26189899  0.92160990  0.80977849     0.07700
H1526       H  0.27082794  0.88262177  0.83745077     0.11400
H1527       H  0.24876621  0.92756648  0.90779494     0.11100
H1528       H  0.24074022  0.96709460  0.88001885     0.07700
C1529       C  0.31843011  0.23314188  0.34206090    -0.11400
C1530       C  0.33779776  0.21476045  0.33309281     0.05700
C1531       C  0.33800343  0.18869455  0.34394033    -0.10200
C1532       C  0.31821912  0.18075911  0.36207887    -0.11800
C1533       C  0.29774334  0.19863707  0.36918583    -0.01600
C1534       C  0.29841129  0.22504632  0.35960953    -0.10700
C1535       C  0.35514509  0.22172131  0.31003909     0.05700
H1536       H  0.35248565  0.17398108  0.33727009     0.07600
H1537       H  0.31801891  0.16029445  0.36931750     0.11100
H1538       H  0.28303075  0.23929802  0.36527960     0.11400
H1539       H  0.31809580  0.25353672  0.33464800     0.07700
C1540       C  0.34419385  0.23632527  0.28862986    -0.11400
C1541       C  0.35860174  0.23996885  0.26519562    -0.10700
C1542       C  0.38435489  0.22914597  0.26247943    -0.01600
C1543       C  0.39615923  0.21591474  0.28427588    -0.11800
C1544       C  0.38155635  0.21206584  0.30789641    -0.10200
H1545       H  0.32382057  0.24368929  0.28930295     0.07700
H1546       H  0.34912729  0.25037436  0.24867851     0.11400
H1547       H  0.41599340  0.20731956  0.28252718     0.11100
H1548       H  0.39060449  0.20094840  0.32415749     0.07700
C1549       C  0.24576344  0.05732945  0.37710738    -0.11400
C1550       C  0.23764645  0.05672321  0.35012234     0.05700
C1551       C  0.22274774  0.07850114  0.34017698    -0.10200
C1552       C  0.21798648  0.10103244  0.35596736    -0.11800
C1553       C  0.22831194  0.10269497  0.38205751    -0.01600
C1554       C  0.24133077  0.08014141  0.39284295    -0.10700
C1555       C  0.24726198  0.03530714  0.33155003     0.05700
H1556       H  0.21626940  0.07910420  0.31957101     0.07600
H1557       H  0.20767358  0.11791654  0.34697831     0.11100
H1558       H  0.24927651  0.08059621  0.41295090     0.11400
H1559       H  0.25655364  0.04061563  0.38580717     0.07700
C1560       C  0.27286882  0.02407236  0.33492074    -0.11400
C1561       C  0.28362860  0.00682085  0.31578167    -0.10700
C1562       C  0.26930657  0.00051701  0.29246261    -0.01600
C1563       C  0.24334248  0.01090345  0.28940160    -0.11800
C1564       C  0.23236389  0.02790256  0.30881999    -0.10200
H1565       H  0.28529132  0.02955664  0.35172128     0.07700
H1566       H  0.30370600  0.99922213  0.31885014     0.11400
H1567       H  0.23162526  0.00616177  0.27186098     0.11100
H1568       H  0.21235406  0.03561136  0.30572281     0.07700
C1569       C  0.33347327  0.23927436  0.49615108    -0.11400
C1570       C  0.32653989  0.25359123  0.51931483     0.05700
C1571       C  0.29924881  0.25795150  0.52480671    -0.10200
C1572       C  0.27947071  0.24678420  0.50851402    -0.11800
C1573       C  0.28654812  0.23073734  0.48659578    -0.01600
C1574       C  0.31373711  0.22782433  0.48010929    -0.10700
C1575       C  0.34734160  0.26100664  0.53929393     0.05700
H1576       H  0.29308285  0.26862370  0.54257503     0.07600
H1577       H  0.25868145  0.24948186  0.51394969     0.11100
H1578       H  0.31981248  0.21604944  0.46299050     0.11400
H1579       H  0.35423887  0.23610675  0.49088955     0.07700
C1580       C  0.36872747  0.24336563  0.54455861    -0.11400
C1581       C  0.38546480  0.24740727  0.56649987    -0.10700
C1582       C  0.38112707  0.26904615  0.58390891    -0.01600
C1583       C  0.36117701  0.28792246  0.57743250    -0.11800
C1584       C  0.34450719  0.28396712  0.55532810    -0.10200
H1585       H  0.37147021  0.22533377  0.53289856     0.07700
H1586       H  0.40062271  0.23245638  0.57084328     0.11400
H1587       H  0.35741765  0.30494514  0.59028789     0.11100
H1588       H  0.32865272  0.29830031  0.55149169     0.07700
C1589       C  0.08546586  0.20654588  0.42592340    -0.11400
C1590       C  0.07487976  0.19505787  0.40259901     0.05700
C1591       C  0.09192822  0.17995853  0.38607236    -0.10200
C1592       C  0.11913322  0.17768986  0.39184927    -0.11800
C1593       C  0.13006859  0.19054169  0.41426760    -0.01600
C1594       C  0.11276794  0.20427324  0.43173024    -0.10700
C1595       C  0.04701548  0.20084857  0.39384655     0.05700
H1596       H  0.08458297  0.17111140  0.36776825     0.07600
H1597       H  0.13180195  0.16690209  0.37797711     0.11100
H1598       H  0.12048460  0.21429317  0.44926319     0.11400
H1599       H  0.07278677  0.21797714  0.43925896     0.07700
C1600       C  0.03211663  0.18129781  0.38029112    -0.11400
C1601       C  0.00825090  0.18811918  0.36745588    -0.10700
C1602       C  0.99856313  0.21459481  0.36809423    -0.01600
C1603       C  0.01226193  0.23365704  0.38347545    -0.11800
C1604       C  0.03631807  0.22687868  0.39613590    -0.10200
H1605       H  0.03947565  0.16092800  0.37867772     0.07700
H1606       H  0.99791656  0.17286006  0.35611439     0.11400
H1607       H  0.00532397  0.25421964  0.38432076     0.11100
H1608       H  0.04735767  0.24249061  0.40624773     0.07700
C1609       C  0.21598996  0.11321140  0.54529800    -0.11400
C1610       C  0.19139357  0.11898182  0.55768380     0.05700
C1611       C  0.17331090  0.13614992  0.54454503    -0.10200
C1612       C  0.18028293  0.14851203  0.52048256    -0.11800
C1613       C  0.20542182  0.14382290  0.50881039    -0.01600
C1614       C  0.22288664  0.12541945  0.52108128    -0.10700
C1615       C  0.18580181  0.10931425  0.58527868     0.05700
H1616       H  0.15398518  0.14059592  0.55323064     0.07600
H1617       H  0.16620037  0.16229239  0.51136097     0.11100
H1618       H  0.24241166  0.12139157  0.51263860     0.11400
H1619       H  0.23052775  0.10032847  0.55497339     0.07700
C1620       C  0.19426249  0.08379408  0.59388245    -0.11400
C1621       C  0.19204969  0.07633851  0.62078530    -0.10700
C1622       C  0.18140928  0.09428829  0.63966834    -0.01600
C1623       C  0.17161751  0.11919228  0.63073862    -0.11800
C1624       C  0.17381807  0.12660907  0.60393960    -0.10200
H1625       H  0.20319981  0.06983757  0.57993868     0.07700
H1626       H  0.19969598  0.05695616  0.62695163     0.11400
H1627       H  0.16321278  0.13350459  0.64466342     0.11100
H1628       H  0.16735993  0.14653142  0.59816128     0.07700
C1629       C  0.19512546  0.32256830  0.39079022    -0.11400
C1630       C  0.20591900  0.32497837  0.36491243     0.05700
C1631       C  0.21982845  0.30312164  0.35394377    -0.10200
C1632       C  0.22175647  0.27907365  0.36779891    -0.11800
C1633       C  0.20989420  0.27617887  0.39300529    -0.01600
C1634       C  0.19726909  0.29831305  0.40486504    -0.10700
C1635       C  0.20033973  0.34861330  0.34776519     0.05700
H1636       H  0.22795981  0.30399609  0.33393081     0.07600
H1637       H  0.23182852  0.26232197  0.35833631     0.11100
H1638       H  0.18798897  0.29645857  0.42431433     0.11400
H1639       H  0.18442946  0.33915748  0.39979115     0.07700
C1640       C  0.17454839  0.35989292  0.34692717    -0.11400
C1641       C  0.16742155  0.37754853  0.32638828    -0.10700
C1642       C  0.18585454  0.38381636  0.30622690    -0.01600
C1643       C  0.21219916  0.37433441  0.30828482    -0.11800
C1644       C  0.21946173  0.35717173  0.32905225    -0.10200
H1645       H  0.15931733  0.35360105  0.36092668     0.07700
H1646       H  0.14700255  0.38477194  0.32523717     0.11400
H1647       H  0.22692876  0.37941988  0.29326949     0.11100
H1648       H  0.23969956  0.34939996  0.32960222     0.07700
C1649       C  0.18617436  0.61620207  0.68844498    -0.11400
C1650       C  0.17903465  0.63751256  0.70537542     0.05700
C1651       C  0.19261872  0.64050860  0.72977649    -0.10200
C1652       C  0.21487832  0.62469344  0.73563030    -0.11800
C1653       C  0.22351537  0.60511167  0.71753866    -0.01600
C1654       C  0.20825792  0.59998255  0.69458672    -0.10700
C1655       C  0.16052941  0.65889984  0.69612139     0.05700
H1656       H  0.18712836  0.65634364  0.74352020     0.07600
H1657       H  0.22638326  0.62889357  0.75346651     0.11100
H1658       H  0.21484776  0.58514612  0.68022441     0.11400
H1659       H  0.17612164  0.61346101  0.66949962     0.07700
C1660       C  0.16761108  0.68579617  0.70010292    -0.11400
C1661       C  0.15123125  0.70644637  0.69102732    -0.10700
C1662       C  0.12722303  0.70088531  0.67759391    -0.01600
C1663       C  0.12013802  0.67395420  0.67325245    -0.11800
C1664       C  0.13674835  0.65311138  0.68234079    -0.10200
H1665       H  0.18616501  0.69096807  0.70993990     0.07700
H1666       H  0.15746562  0.72687787  0.69470190     0.11400
H1667       H  0.10174872  0.66900205  0.66301427     0.11100
H1668       H  0.13088981  0.63253257  0.67888158     0.07700
C1669       C  0.11286476  0.74899999  0.53819949    -0.11400
C1670       C  0.13985218  0.75695065  0.53683637     0.05700
C1671       C  0.15020831  0.77254754  0.55774191    -0.10200
C1672       C  0.13474854  0.77840934  0.58014432    -0.11800
C1673       C  0.10860292  0.76844203  0.58260431    -0.01600
C1674       C  0.09745583  0.75451532  0.56093882    -0.10700
C1675       C  0.15809820  0.74661690  0.51559275     0.05700
H1676       H  0.17089188  0.77879832  0.55778995     0.07600
H1677       H  0.14408180  0.78920423  0.59639418     0.11100
H1678       H  0.07732205  0.74671021  0.56209107     0.11400
H1679       H  0.10393985  0.73755636  0.52218974     0.07700
C1680       C  0.15491488  0.72047253  0.50563345    -0.11400
C1681       C  0.17415940  0.70912083  0.48888074    -0.10700
C1682       C  0.19734258  0.72339703  0.48202980    -0.01600
C1683       C  0.20012969  0.74985692  0.49098797    -0.11800
C1684       C  0.18055232  0.76146862  0.50729268    -0.10200
H1685       H  0.13827536  0.70814352  0.51183572     0.07700
H1686       H  0.17149701  0.68861951  0.48235968     0.11400
H1687       H  0.21761689  0.76144592  0.48567361     0.11100
H1688       H  0.18340731  0.78188277  0.51395062     0.07700
C1689       C  0.10018492  0.90732391  0.65857997    -0.11400
C1690       C  0.09244884  0.92175234  0.68149026     0.05700
C1691       C  0.07501192  0.90940508  0.69977085    -0.10200
C1692       C  0.06727442  0.88272880  0.69631890    -0.11800
C1693       C  0.07713163  0.86764887  0.67476006    -0.01600
C1694       C  0.09289362  0.88048880  0.65542831    -0.10700
C1695       C  0.10502562  0.94805253  0.68792348     0.05700
H1696       H  0.06874885  0.91965531  0.71775474     0.07600
H1697       H  0.05516762  0.87336960  0.71162150     0.11100
H1698       H  0.10049870  0.86947515  0.63840631     0.11400
H1699       H  0.11286402  0.91639050  0.64359116     0.07700
C1700       C  0.13192465  0.95259606  0.68120330    -0.11400
C1701       C  0.14505568  0.97561824  0.68977856    -0.10700
C1702       C  0.13184999  0.99468082  0.70568789    -0.01600
C1703       C  0.10471190  0.99073698  0.71176400    -0.11800
C1704       C  0.09139467  0.96774573  0.70283963    -0.10200
H1705       H  0.14339453  0.93776920  0.67033716     0.07700
H1706       H  0.16598529  0.97788884  0.68478758     0.11400
H1707       H  0.09389484  0.00516820  0.72379005     0.11100
H1708       H  0.07056623  0.96519689  0.70804768     0.07700
C1709       C  0.98114348  0.69471360  0.75136479    -0.11400
C1710       C  0.97292669  0.67142653  0.73779441     0.05700
C1711       C  0.98258591  0.66703682  0.71176986    -0.10200
C1712       C  0.99925686  0.68564170  0.69939756    -0.11800
C1713       C  0.00645888  0.70943519  0.71247045    -0.01600
C1714       C  0.99756250  0.71360689  0.73876387    -0.10700
C1715       C  0.95237545  0.65309222  0.74929681     0.05700
H1716       H  0.97632054  0.64979426  0.70031358     0.07600
H1717       H  0.00563521  0.68182319  0.67907820     0.11100
H1718       H  0.00301757  0.73161615  0.74947632     0.11400
H1719       H  0.97453142  0.69861167  0.77157167     0.07700
C1720       C  0.95187349  0.62574260  0.74234493    -0.11400
C1721       C  0.92950828  0.60998833  0.74804348    -0.10700
C1722       C  0.90739555  0.62104838  0.76137961    -0.01600
C1723       C  0.90908158  0.64751291  0.77083061    -0.11800
C1724       C  0.93118854  0.66341772  0.76467305    -0.10200
H1725       H  0.96821061  0.61678225  0.73131380     0.07700
H1726       H  0.92895379  0.58956972  0.74076870     0.11400
H1727       H  0.89235201  0.65671238  0.78108853     0.11100
H1728       H  0.93062483  0.68433599  0.77030548     0.07700
C1729       C  0.17252649  0.77806214  0.83308013    -0.11400
C1730       C  0.15258263  0.79686946  0.82653782     0.05700
C1731       C  0.15152588  0.82115063  0.84074631    -0.10200
C1732       C  0.17110913  0.82714142  0.85983889    -0.11800
C1733       C  0.19216116  0.80906143  0.86479861    -0.01600
C1734       C  0.19219764  0.78416666  0.85178520    -0.10700
C1735       C  0.13533159  0.79238857  0.80281295     0.05700
H1736       H  0.13651465  0.83610493  0.83605443     0.07600
H1737       H  0.17055986  0.84645955  0.86967498     0.11100
H1738       H  0.20784402  0.76960062  0.85560136     0.11400
H1739       H  0.17350052  0.75889931  0.82296999     0.07700
C1740       C  0.14679045  0.78151967  0.77962741    -0.11400
C1741       C  0.13195022  0.77919099  0.75630582    -0.10700
C1742       C  0.10519821  0.78768568  0.75537793    -0.01600
C1743       C  0.09317448  0.79763466  0.77871808    -0.11800
C1744       C  0.10824057  0.80018011  0.80226593    -0.10200
H1745       H  0.16766478  0.77575907  0.77912014     0.07700
H1746       H  0.14170297  0.77124063  0.73867008     0.11400
H1747       H  0.07258255  0.80436207  0.77846018     0.11100
H1748       H  0.09885411  0.80850906  0.81990399     0.07700
C1749       C  0.88814897  0.04676672  0.27574399    -0.11400
C1750       C  0.88324838  0.05704971  0.30145867     0.05700
C1751       C  0.86663397  0.04245421  0.31880398    -0.10200
C1752       C  0.85381386  0.01923553  0.31006130    -0.11800
C1753       C  0.85753709  0.00985573  0.28385249    -0.01600
C1754       C  0.87555046  0.02335987  0.26709768    -0.10700
C1755       C  0.89309326  0.08415881  0.30899112     0.05700
H1756       H  0.86290514  0.04938946  0.33894350     0.07600
H1757       H  0.84037472  0.00905399  0.32362561     0.11100
H1758       H  0.87885756  0.01665800  0.24679903     0.11400
H1759       H  0.90054209  0.05757045  0.26168993     0.07700
C1760       C  0.91772985  0.09377556  0.29948603    -0.11400
C1761       C  0.92476775  0.12068207  0.30287854    -0.10700
C1762       C  0.90739736  0.13853046  0.31600894    -0.01600
C1763       C  0.88370948  0.12843937  0.32721131    -0.11800
C1764       C  0.87659017  0.10165470  0.32364139    -0.10200
H1765       H  0.93120073  0.08072485  0.28862971     0.07700
H1766       H  0.94326420  0.12773817  0.29416646     0.11400
H1767       H  0.86982739  0.14157864  0.33744756     0.11100
H1768       H  0.85733388  0.09516475  0.33101054     0.07700
C1769       C  0.76437525  0.85640385  0.15670295    -0.11400
C1770       C  0.78324222  0.84540128  0.13899893     0.05700
C1771       C  0.81007348  0.85363368  0.14094880    -0.10200
C1772       C  0.81813915  0.87077384  0.16156323    -0.11800
C1773       C  0.79955742  0.87947805  0.18066541    -0.01600
C1774       C  0.77252053  0.87292391  0.17755945    -0.10700
C1775       C  0.77577730  0.82226737  0.12193209     0.05700
H1776       H  0.82512907  0.84537996  0.12776664     0.07600
H1777       H  0.83910511  0.87570783  0.16364828     0.11100
H1778       H  0.75780881  0.87987437  0.19186049     0.11400
H1779       H  0.74347177  0.85100280  0.15534136     0.07700
C1780       C  0.75922800  0.80226323  0.13266833    -0.11400
C1781       C  0.75558981  0.77816856  0.11930594    -0.10700
C1782       C  0.76829687  0.77340048  0.09481530    -0.01600
C1783       C  0.78330135  0.79393331  0.08293247    -0.11800
C1784       C  0.78718859  0.81820578  0.09652779    -0.10200
H1785       H  0.75044415  0.80441091  0.15231085     0.07700
H1786       H  0.74381516  0.76264115  0.12879493     0.11400
H1787       H  0.79336245  0.79058141  0.06407601     0.11100
H1788       H  0.79987337  0.83335128  0.08768022     0.07700
C1789       C  0.91858777  0.84273677  0.25796886    -0.11400
C1790       C  0.94106618  0.85453862  0.24603335     0.05700
C1791       C  0.94043727  0.88218276  0.24037741    -0.10200
C1792       C  0.91709522  0.89713316  0.24442291    -0.11800
C1793       C  0.89394373  0.88478548  0.25437834    -0.01600
C1794       C  0.89533064  0.85769553  0.26216731    -0.10700
C1795       C  0.96341816  0.83743505  0.23629771     0.05700
H1796       H  0.95763777  0.89201069  0.23171485     0.07600
H1797       H  0.91682138  0.91802540  0.23850075     0.11100
H1798       H  0.87794253  0.84755134  0.27006563     0.11400
H1799       H  0.91827190  0.82148944  0.26241138     0.07700
C1800       C  0.97207002  0.81471217  0.25067612    -0.11400
C1801       C  0.99038455  0.79667825  0.23937281    -0.10700
C1802       C  0.00025775  0.80099863  0.21345440    -0.01600
C1803       C  0.99253242  0.82436770  0.19969547    -0.11800
C1804       C  0.97435816  0.84228601  0.21093009    -0.10200
H1805       H  0.96420486  0.81055618  0.27038335     0.07700
H1806       H  0.99604604  0.77891042  0.25051343     0.11400
H1807       H  0.99987096  0.82845575  0.17976380     0.11100
H1808       H  0.96786586  0.85927365  0.19906178     0.07700
C1809       C  0.71973939  0.07460317  0.15121697    -0.11400
C1810       C  0.73977616  0.05595032  0.14438540     0.05700
C1811       C  0.75321976  0.05923692  0.11989663    -0.10200
C1812       C  0.74826208  0.08162038  0.10377185    -0.11800
C1813       C  0.73005264  0.10147592  0.11193382    -0.01600
C1814       C  0.71512530  0.09722901  0.13531816    -0.10700
C1815       C  0.74866951  0.03502559  0.16385929     0.05700
H1816       H  0.76893610  0.04553538  0.11393647     0.07600
H1817       H  0.76017010  0.08432950  0.08592356     0.11100
H1818       H  0.70069401  0.11201426  0.14197519     0.11400
H1819       H  0.70833583  0.07233952  0.16943609     0.07700
C1820       C  0.74874212  0.04053248  0.19145177    -0.11400
C1821       C  0.75992732  0.02241412  0.20963826    -0.10700
C1822       C  0.77180425  0.99855884  0.20069089    -0.01600
C1823       C  0.77104837  0.99252663  0.17329481    -0.11800
C1824       C  0.75937359  0.01041725  0.15511737    -0.10200
H1825       H  0.74125747  0.05942127  0.19903428     0.07700
H1826       H  0.76034210  0.02765376  0.23061872     0.11400
H1827       H  0.77973442  0.97406413  0.16588243     0.11100
H1828       H  0.75919868  0.00514666  0.13416256     0.07700
C1829       C  0.67557570  0.90180747  0.28927384    -0.11400
C1830       C  0.67108963  0.87644931  0.27786962     0.05700
C1831       C  0.69103979  0.86500249  0.26172464    -0.10200
C1832       C  0.71544539  0.87774678  0.25834553    -0.11800
C1833       C  0.72052256  0.90228308  0.27092739    -0.01600
C1834       C  0.70012927  0.91477392  0.28564175    -0.10700
C1835       C  0.64737688  0.86017790  0.28491945     0.05700
H1836       H  0.68849243  0.84533989  0.25299966     0.07600
H1837       H  0.73086505  0.86780688  0.24677996     0.11100
H1838       H  0.70372784  0.93367746  0.29559549     0.11400
H1839       H  0.66046848  0.91113527  0.30168620     0.07700
C1840       C  0.63883684  0.85828126  0.31164798    -0.11400
C1841       C  0.62095128  0.83819747  0.31936691    -0.10700
C1842       C  0.61176956  0.81965860  0.30051612    -0.01600
C1843       C  0.61866210  0.82275740  0.27358014    -0.11800
C1844       C  0.63599510  0.84309239  0.26577768    -0.10200
H1845       H  0.64743794  0.87097137  0.32688304     0.07700
H1846       H  0.61589092  0.83591523  0.34029003     0.11400
H1847       H  0.61152393  0.80869081  0.25876232     0.11100
H1848       H  0.64176825  0.84443097  0.24496492     0.07700
C1849       C  0.88765020  0.82499342  0.61538751    -0.11400
C1850       C  0.90561696  0.81247671  0.59773084     0.05700
C1851       C  0.89625147  0.80432417  0.57255633    -0.10200
C1852       C  0.86930693  0.80752486  0.56569276    -0.11800
C1853       C  0.85109462  0.81888239  0.58389946    -0.01600
C1854       C  0.86075896  0.82818090  0.60855335    -0.10700
C1855       C  0.93340483  0.80633300  0.60648595     0.05700
H1856       H  0.90965588  0.79497132  0.55834826     0.07600
H1857       H  0.86258081  0.80014618  0.54652442     0.11100
H1858       H  0.84733028  0.83696744  0.62309893     0.11400
H1859       H  0.89405865  0.83120435  0.63507033     0.07700
C1860       C  0.94746743  0.82437488  0.62275830    -0.11400
C1861       C  0.97204548  0.81714699  0.63395049    -0.10700
C1862       C  0.98329205  0.79179699  0.62892980    -0.01600
C1863       C  0.97000466  0.77431391  0.61145008    -0.11800
C1864       C  0.94526738  0.78145364  0.60044196    -0.10200
H1865       H  0.93916256  0.84389936  0.62736026     0.07700
H1866       H  0.98195668  0.83120272  0.64707134     0.11400
H1867       H  0.97808917  0.75459707  0.60728176     0.11100
H1868       H  0.93487018  0.76695136  0.58823516     0.07700
C1869       C  0.77440888  0.90171822  0.44876110    -0.11400
C1870       C  0.79712414  0.89223799  0.43504328     0.05700
C1871       C  0.81375119  0.87342786  0.44787570    -0.10200
C1872       C  0.80668335  0.86269573  0.47266822    -0.11800
C1873       C  0.78295082  0.87071289  0.48544989    -0.01600
C1874       C  0.76747657  0.89116284  0.47375441    -0.10700
C1875       C  0.80199106  0.89987200  0.40662168     0.05700
H1876       H  0.83182134  0.86625363  0.43833004     0.07600
H1877       H  0.81929720  0.84727663  0.48132102     0.11100
H1878       H  0.74906452  0.89777764  0.48305720     0.11400
H1879       H  0.76101367  0.91606846  0.43951503     0.07700
C1880       C  0.81151021  0.88067534  0.38832760    -0.11400
C1881       C  0.81350773  0.88668585  0.36113197    -0.10700
C1882       C  0.80579013  0.91198174  0.35140082    -0.01600
C1883       C  0.79719761  0.93153419  0.36974853    -0.11800
C1884       C  0.79540084  0.92557974  0.39703197    -0.10200
H1885       H  0.81632086  0.86050550  0.39477781     0.07700
H1886       H  0.82007057  0.87109259  0.34759583     0.11400
H1887       H  0.79125755  0.95130045  0.36296273     0.11100
H1888       H  0.78842981  0.94100303  0.41054530     0.07700
C1889       C  0.63764037  0.83002669  0.63757821    -0.11400
C1890       C  0.63738945  0.80654697  0.65313327     0.05700
C1891       C  0.65711795  0.78694868  0.64894344    -0.10200
C1892       C  0.67798095  0.79170684  0.63106994    -0.11800
C1893       C  0.67908480  0.81585714  0.61666995    -0.01600
C1894       C  0.65820015  0.83450735  0.61919482    -0.10700
C1895       C  0.61953196  0.80432460  0.67651530     0.05700
H1896       H  0.65747566  0.76883498  0.66090452     0.07600
H1897       H  0.69388766  0.77702061  0.62931154     0.11100
H1898       H  0.65877331  0.85331319  0.60836041     0.11400
H1899       H  0.62261363  0.84541097  0.64058257     0.07700
C1900       C  0.61960518  0.82484443  0.69564180    -0.11400
C1901       C  0.60665074  0.82135603  0.72002325    -0.10700
C1902       C  0.59284177  0.79757252  0.72545770    -0.01600
C1903       C  0.59142880  0.77756183  0.70586178    -0.11800
C1904       C  0.60505403  0.78076072  0.68161982    -0.10200
H1905       H  0.63097958  0.84298728  0.69232801     0.07700
H1906       H  0.60799592  0.83695952  0.73499107     0.11400
H1907       H  0.58106669  0.75896251  0.70988934     0.11100
H1908       H  0.60493936  0.76462390  0.66718493     0.07700
C1909       C  0.72350105  0.94768729  0.62397589    -0.11400
C1910       C  0.73920012  0.95266817  0.64675023     0.05700
C1911       C  0.76105635  0.93552486  0.65194655    -0.10200
C1912       C  0.76605581  0.91320036  0.63569612    -0.11800
C1913       C  0.74964574  0.90777652  0.61357630    -0.01600
C1914       C  0.72879132  0.92573249  0.60752144    -0.10700
C1915       C  0.73136663  0.97430371  0.66588619     0.05700
H1916       H  0.77396690  0.93895609  0.66892327     0.07600
H1917       H  0.78230758  0.89975804  0.64089088     0.11100
H1918       H  0.71548720  0.92198096  0.59089640     0.11400
H1919       H  0.70617193  0.95993896  0.61947085     0.07700
C1920       C  0.71841112  0.99775002  0.65684801    -0.11400
C1921       C  0.70767502  0.01616484  0.67498847    -0.10700
C1922       C  0.71014979  0.01195185  0.70261997    -0.01600
C1923       C  0.72449744  0.98947474  0.71172065    -0.11800
C1924       C  0.73476312  0.97075652  0.69360213    -0.10200
H1925       H  0.71603380  0.00166546  0.63572165     0.07700
H1926       H  0.69704829  0.03353343  0.66737827     0.11400
H1927       H  0.72662737  0.98563157  0.73290916     0.11100
H1928       H  0.74422951  0.95287265  0.70147749     0.07700
C1929       C  0.79953568  0.69311071  0.60181731    -0.11400
C1930       C  0.78840566  0.68882054  0.62720987     0.05700
C1931       C  0.76786789  0.70578565  0.63615800    -0.10200
C1932       C  0.76059883  0.72833109  0.62141894    -0.11800
C1933       C  0.77363053  0.73431562  0.59733226    -0.01600
C1934       C  0.79211424  0.71579194  0.58686874    -0.10700
C1935       C  0.80083856  0.67007846  0.64648131     0.05700
H1936       H  0.75878082  0.70261901  0.65555253     0.07600
H1937       H  0.74604635  0.74209741  0.62976436     0.11100
H1938       H  0.80249088  0.72003475  0.56836293     0.11400
H1939       H  0.81543512  0.68025322  0.59459456     0.07700
C1940       C  0.80363521  0.64254128  0.64131776    -0.11400
C1941       C  0.81318935  0.62522078  0.66138472    -0.10700
C1942       C  0.82020115  0.63539380  0.68666097    -0.01600
C1943       C  0.81882514  0.66318641  0.69093287    -0.11800
C1944       C  0.80923476  0.68023727  0.67115799    -0.10200
H1945       H  0.79743713  0.63437541  0.62228171     0.07700
H1946       H  0.81404396  0.60388734  0.65752251     0.11400
H1947       H  0.82442220  0.67181090  0.70996211     0.11100
H1948       H  0.80781897  0.70149561  0.67535515     0.07700
C1949       C  0.65912377  0.78955904  0.47156999    -0.11400
C1950       C  0.66432547  0.76476822  0.45935355     0.05700
C1951       C  0.68782602  0.75079434  0.46636807    -0.10200
C1952       C  0.70595484  0.76174567  0.48468252    -0.11800
C1953       C  0.70089583  0.78684122  0.49640198    -0.01600
C1954       C  0.67706054  0.80037860  0.48986596    -0.10700
C1955       C  0.64627237  0.75498364  0.43785068     0.05700
H1956       H  0.69233273  0.73153338  0.45750810     0.07600
H1957       H  0.72405541  0.75073552  0.48938851     0.11100
H1958       H  0.67247301  0.81978821  0.49837946     0.11400
H1959       H  0.64160727  0.80121804  0.46625810     0.07700
C1960       C  0.61854597  0.75981367  0.43904067    -0.11400
C1961       C  0.60229356  0.75520457  0.41678750    -0.10700
C1962       C  0.61334904  0.74535335  0.39295061    -0.01600
C1963       C  0.64066555  0.73848565  0.39250579    -0.11800
C1964       C  0.65694260  0.74335895  0.41463511    -0.10200
H1965       H  0.60955143  0.76814517  0.45686173     0.07700
H1966       H  0.58129546  0.76045481  0.41790026     0.11400
H1967       H  0.64989551  0.73085943  0.37448918     0.11100
H1968       H  0.67819228  0.73956088  0.41288111     0.07700
loop_ 
_geom_bond_atom_site_label_1 
_geom_bond_atom_site_label_2 
_geom_bond_distance 
_geom_bond_site_symmetry_2 
_ccdc_geom_bond_type 
Fe1          O17   2.055       .  S
Fe1           O7   2.048       .  S
Fe1          O14   2.068       .  S
Fe1           O6   2.064       .  S
Fe1          O12   1.970       .  S
Fe2           O5   2.049       .  S
Fe2           O9   2.075       .  S
Fe2          O13   2.060       .  S
Fe2          O18   2.076       .  S
Fe2          O12   1.982       .  S
Fe3          O21   2.076       .  S
Fe3           O8   2.064       .  S
Fe3          O15   2.072       .  S
Fe3           O4   2.072       .  S
Fe3          O12   1.985       .  S
O4           C11   1.272       .  A
O5           C19   1.266       .  A
O6           C11   1.272       .  A
O7           C10   1.265       .  A
O8           C20   1.271       .  A
O9           C22   1.272       .  A
C10          O15   1.267       .  A
C10        C1933   1.476       .  S
C11        C1853   1.484       .  S
O13          C16   1.266       .  A
O14          C16   1.267       .  A
C16        C1913   1.485       .  S
O17          C22   1.269       .  A
O18          C20   1.273       .  A
C19          O21   1.270       .  A
C19        C1953   1.484       .  S
C20        C1873   1.484       .  S
C22        C1893   1.471       .  S
Fe23         O39   2.048       .  S
Fe23         O29   2.051       .  S
Fe23         O36   2.062       .  S
Fe23         O28   2.061       .  S
Fe23         O34   1.957       .  S
Fe24         O27   2.077       .  S
Fe24         O31   2.067       .  S
Fe24         O35   2.078       .  S
Fe24         O40   2.054       .  S
Fe24         O34   1.970       .  S
Fe25         O43   2.059       .  S
Fe25         O30   2.081       .  S
Fe25         O37   2.083       .  S
Fe25         O26   2.066       .  S
Fe25         O34   1.972       .  S
O26          C33   1.269       .  A
O27          C41   1.271       .  A
O28          C33   1.268       .  A
O29          C32   1.268       .  A
O30          C42   1.273       .  A
O31          C44   1.267       .  A
C32          O37   1.271       .  A
C32        C1773   1.470       .  S
C33        C1793   1.483       .  S
O35          C38   1.273       .  A
O36          C38   1.271       .  A
C38        C1882   1.485       .  S
O39          C44   1.266       .  A
O40          C42   1.269       .  A
C41          O43   1.268       .  A
C41        C1822   1.480       .  S
C42        C1753   1.482   1_565  S
C44        C1833   1.470       .  S
Fe45         O61   2.049       .  S
Fe45         O51   2.050       .  S
Fe45         O58   2.058       .  S
Fe45         O50   2.046       .  S
Fe45         O56   1.961       .  S
Fe46         O49   2.072       .  S
Fe46         O53   2.073       .  S
Fe46         O57   2.079       .  S
Fe46         O62   2.067       .  S
Fe46         O56   1.978       .  S
Fe47         O65   2.051       .  S
Fe47         O52   2.078       .  S
Fe47         O59   2.084       .  S
Fe47         O48   2.073       .  S
Fe47         O56   1.978       .  S
O48          C55   1.267       .  A
O49          C63   1.268       .  A
O50          C55   1.263       .  A
O51          C54   1.271       .  A
O52          C64   1.276       .  A
O53          C66   1.268       .  A
C54          O59   1.275       .  A
C54        C1662   1.483       .  S
C55        C1673   1.484       .  S
O57          C60   1.272       .  A
O58          C60   1.269       .  A
C60        C1693   1.481       .  S
O61          C66   1.266       .  A
O62          C64   1.274       .  A
C63          O65   1.265       .  A
C63        C1713   1.483       .  S
C64        C1862   1.482   1_455  S
C66        C1742   1.476       .  S
Fe67         O83   2.043       .  S
Fe67         O73   2.050       .  S
Fe67         O80   2.057       .  S
Fe67         O72   2.053       .  S
Fe67         O78   1.959       .  S
Fe68         O71   2.076       .  S
Fe68         O75   2.070       .  S
Fe68         O79   2.082       .  S
Fe68         O84   2.061       .  S
Fe68         O78   1.978       .  S
Fe69         O87   2.057       .  S
Fe69         O74   2.079       .  S
Fe69         O81   2.082       .  S
Fe69         O70   2.076       .  S
Fe69         O78   1.976       .  S
O70          C77   1.269       .  A
O71          C85   1.270       .  A
O72          C77   1.265       .  A
O73          C76   1.268       .  A
O74          C86   1.274       .  A
O75          C88   1.267       .  A
C76          O81   1.272       .  A
C76        C1533   1.470       .  S
C77        C1553   1.487       .  S
O79          C82   1.273       .  A
O80          C82   1.271       .  A
C82        C1593   1.485       .  S
O83          C88   1.264       .  A
O84          C86   1.271       .  A
C85          O87   1.267       .  A
C85        C1573   1.482       .  S
C86        C1613   1.483       .  S
C88        C1633   1.470       .  S
Fe89        O105   2.056       .  S
Fe89         O95   2.046       .  S
Fe89        O102   2.059       .  S
Fe89         O94   2.061       .  S
Fe89        O100   1.968       .  S
Fe90         O93   2.061       .  S
Fe90         O97   2.072       .  S
Fe90        O101   2.063       .  S
Fe90        O106   2.073       .  S
Fe90        O100   1.980       .  S
Fe91        O109   2.071       .  S
Fe91         O96   2.062       .  S
Fe91        O103   2.068       .  S
Fe91         O92   2.075       .  S
Fe91        O100   1.983       .  S
O92          C99   1.272       .  A
O93         C107   1.268       .  A
O94          C99   1.270       .  A
O95          C98   1.265       .  A
O96         C108   1.270       .  A
O97         C110   1.270       .  A
C98         O103   1.267       .  A
C98        C1453   1.476       .  S
C99        C1622   1.485       .  S
O101        C104   1.268       .  A
O102        C104   1.266       .  A
C104       C1493   1.482       .  S
O105        C110   1.269       .  A
O106        C108   1.271       .  A
C107        O109   1.269       .  A
C107       C1513   1.485       .  S
C108       C1702   1.484   1_545  S
C110       C1473   1.470       .  S
Fe111       O127   2.045       .  S
Fe111       O117   2.067       .  S
Fe111       O124   2.067       .  S
Fe111       O116   2.048       .  S
Fe111       O122   1.952       .  S
Fe112       O115   2.049       .  S
Fe112       O119   2.095       .  S
Fe112       O123   2.057       .  S
Fe112       O128   2.089       .  S
Fe112       O122   1.959       .  S
Fe113       O131   2.086       .  S
Fe113       O118   2.058       .  S
Fe113       O125   2.071       .  S
Fe113       O114   2.097       .  S
Fe113       O122   1.955       .  S
O114        C121   1.277       .  A
O115        C129   1.265       .  A
O116        C121   1.270       .  A
O117        C120   1.266       .  A
O118        C130   1.273       .  A
O119        C132   1.278       .  A
C120        O125   1.267       .  A
C120       C1433   1.467       .  S
C121       C1762   1.484       .  S
O123        C126   1.265       .  A
O124        C126   1.266       .  A
C126       C1393   1.481       .  S
O127        C132   1.271       .  A
O128        C130   1.277       .  A
C129        O131   1.271       .  A
C129       C1413   1.486       .  S
C130       C1602   1.482       .  S
C132       C1373   1.476       .  S
Fe133       O149   2.053       .  S
Fe133       O139   2.061       .  S
Fe133       O146   2.067       .  S
Fe133       O138   2.063       .  S
Fe133       O144   1.959       .  S
Fe134       O137   2.072       .  S
Fe134       O141   2.080       .  S
Fe134       O145   2.069       .  S
Fe134       O150   2.064       .  S
Fe134       O144   1.974       .  S
Fe135       O153   2.054       .  S
Fe135       O140   2.074       .  S
Fe135       O147   2.071       .  S
Fe135       O136   2.061       .  S
Fe135       O144   1.974       .  S
O136        C143   1.267       .  A
O137        C151   1.268       .  A
O138        C143   1.267       .  A
O139        C142   1.270       .  A
O140        C152   1.274       .  A
O141        C154   1.272       .  A
C142        O147   1.270       .  A
C142       C1333   1.468       .  S
C143       C1353   1.479       .  S
O145        C148   1.270       .  A
O146        C148   1.270       .  A
C148       C1302   1.483       .  S
O149        C154   1.268       .  A
O150        C152   1.274       .  A
C151        O153   1.265       .  A
C151       C1402   1.478       .  S
C152       C1282   1.481       .  S
C154       C1322   1.479       .  S
Fe155       O171   2.064       .  S
Fe155       O161   2.049       .  S
Fe155       O168   2.061       .  S
Fe155       O160   2.056       .  S
Fe155       O166   1.953       .  S
Fe156       O159   2.055       .  S
Fe156       O163   2.066       .  S
Fe156       O167   2.068       .  S
Fe156       O172   2.063       .  S
Fe156       O166   1.960       .  S
Fe157       O175   2.070       .  S
Fe157       O162   2.082       .  S
Fe157       O169   2.080       .  S
Fe157       O158   2.073       .  S
Fe157       O166   1.967       .  S
O158        C165   1.270       .  A
O159        C173   1.265       .  A
O160        C165   1.269       .  A
O161        C164   1.268       .  A
O162        C174   1.277       .  A
O163        C176   1.271       .  A
C164        O169   1.272       .  A
C164       C1382   1.482       .  S
C165       C1273   1.483       .  S
O167        C170   1.267       .  A
O168        C170   1.266       .  A
C170       C1242   1.484       .  S
O171        C176   1.272       .  A
O172        C174   1.275       .  A
C173        O175   1.267       .  A
C173       C1262   1.482       .  S
C174       C1193   1.482       .  S
C176       C1213   1.477       .  S
Fe177       O193   2.050       .  S
Fe177       O183   2.056       .  S
Fe177       O190   2.064       .  S
Fe177       O182   2.062       .  S
Fe177       O188   1.969       .  S
Fe178       O181   2.076       .  S
Fe178       O185   2.071       .  S
Fe178       O189   2.075       .  S
Fe178       O194   2.064       .  S
Fe178       O188   1.983       .  S
Fe179       O197   2.061       .  S
Fe179       O184   2.066       .  S
Fe179       O191   2.067       .  S
Fe179       O180   2.068       .  S
Fe179       O188   1.986       .  S
O180        C187   1.269       .  A
O181        C195   1.270       .  A
O182        C187   1.267       .  A
O183        C186   1.269       .  A
O184        C196   1.271       .  A
O185        C198   1.268       .  A
C186        O191   1.270       .  A
C186       C1153   1.475       .  S
C187       C1173   1.486       .  S
O189        C192   1.271       .  A
O190        C192   1.270       .  A
C192       C1113   1.487       .  S
O193        C198   1.266       .  A
O194        C196   1.271       .  A
C195        O197   1.267       .  A
C195       C1133   1.487       .  S
C196       C1093   1.477       .  S
C198       C1653   1.468       .  S
Fe199       O215   2.066       .  S
Fe199       O205   2.051       .  S
Fe199       O212   2.055       .  S
Fe199       O204   2.054       .  S
Fe199       O210   1.949       .  S
Fe200       O203   2.061       .  S
Fe200       O207   2.068       .  S
Fe200       O211   2.078       .  S
Fe200       O216   2.069       .  S
Fe200       O210   1.959       .  S
Fe201       O219   2.077       .  S
Fe201       O206   2.084       .  S
Fe201       O213   2.085       .  S
Fe201       O202   2.073       .  S
Fe201       O210   1.960       .  S
O202        C209   1.271       .  A
O203        C217   1.266       .  A
O204        C209   1.269       .  A
O205        C208   1.268       .  A
O206        C218   1.278       .  A
O207        C220   1.272       .  A
C208        O213   1.273       .  A
C208       C1073   1.483       .  S
C209       C1102   1.482       .  S
O211        C214   1.269       .  A
O212        C214   1.264       .  A
C214       C1582   1.484       .  S
O215        C220   1.273       .  A
O216        C218   1.276       .  A
C217        O219   1.269       .  A
C217       C1062   1.487       .  S
C218       C1293   1.483       .  S
C220       C1462   1.478       .  S
Fe221       O237   2.040       .  S
Fe221       O227   2.051       .  S
Fe221       O234   2.060       .  S
Fe221       O226   2.050       .  S
Fe221       O232   1.967       .  S
Fe222       O225   2.072       .  S
Fe222       O229   2.074       .  S
Fe222       O233   2.076       .  S
Fe222       O238   2.069       .  S
Fe222       O232   1.984       .  S
Fe223       O241   2.063       .  S
Fe223       O228   2.065       .  S
Fe223       O235   2.075       .  S
Fe223       O224   2.070       .  S
Fe223       O232   1.982       .  S
O224        C231   1.267       .  A
O225        C239   1.269       .  A
O226        C231   1.263       .  A
O227        C230   1.269       .  A
O228        C240   1.271       .  A
O229        C242   1.267       .  A
C230        O235   1.271       .  A
C230       C1842   1.464       .  S
C231       C1962   1.484       .  S
O233        C236   1.273       .  A
O234        C236   1.270       .  A
C236       C1202   1.477       .  S
O237        C242   1.263       .  A
O238        C240   1.273       .  A
C239        O241   1.268       .  A
C239       C1033   1.487       .  S
C240       C1002   1.483       .  S
C242       C1013   1.474       .  S
Fe243       O259   2.052       .  S
Fe243       O249   2.074       .  S
Fe243       O256   2.062       .  S
Fe243       O248   2.052       .  S
Fe243       O254   1.955       .  S
Fe244       O247   2.044       .  S
Fe244       O251   2.104       .  S
Fe244       O255   2.055       .  S
Fe244       O260   2.099       .  S
Fe244       O254   1.962       .  S
Fe245       O263   2.079       .  S
Fe245       O250   2.063       .  S
Fe245       O257   2.067       .  S
Fe245       O246   2.092       .  S
Fe245       O254   1.961       .  S
O246        C253   1.274       .  A
O247        C261   1.262       .  A
O248        C253   1.269       .  A
O249        C252   1.270       .  A
O250        C262   1.274       .  A
O251        C264   1.281       .  A
C252        O257   1.268       .  A
C252        C982   1.476       .  S
C253        C993   1.478       .  S
O255        C258   1.264       .  A
O256        C258   1.265       .  A
C258        C953   1.482       .  S
O259        C264   1.274       .  A
O260        C262   1.280       .  A
C261        O263   1.269       .  A
C261       C1682   1.479       .  S
C262       C1122   1.487       .  S
C264        C933   1.486       .  S
Fe265       O281   2.055       .  S
Fe265       O271   2.049       .  S
Fe265       O278   2.054       .  S
Fe265       O270   2.061       .  S
Fe265       O276   1.963       .  S
Fe266       O269   2.058       .  S
Fe266       O273   2.074       .  S
Fe266       O277   2.078       .  S
Fe266       O282   2.076       .  S
Fe266       O276   1.976       .  S
Fe267       O285   2.066       .  S
Fe267       O272   2.061       .  S
Fe267       O279   2.072       .  S
Fe267       O268   2.067       .  S
Fe267       O276   1.978       .  S
O268        C275   1.268       .  A
O269        C283   1.266       .  A
O270        C275   1.268       .  A
O271        C274   1.267       .  A
O272        C284   1.272       .  A
O273        C286   1.269       .  A
C274        O279   1.270       .  A
C274        C913   1.468       .  S
C275        C882   1.484       .  S
O277        C280   1.272       .  A
O278        C280   1.267       .  A
C280       C1722   1.482       .  S
O281        C286   1.268       .  A
O282        C284   1.275       .  A
C283        O285   1.267       .  A
C283       C1362   1.477       .  S
C284        C893   1.478       .  S
C286       C1942   1.481       .  S
Fe287       O303   2.038       .  S
Fe287       O293   2.051       .  S
Fe287       O300   2.059       .  S
Fe287       O292   2.053       .  S
Fe287       O298   1.964       .  S
Fe288       O291   2.066       .  S
Fe288       O295   2.076       .  S
Fe288       O299   2.070       .  S
Fe288       O304   2.061       .  S
Fe288       O298   1.984       .  S
Fe289       O307   2.055       .  S
Fe289       O294   2.071       .  S
Fe289       O301   2.070       .  S
Fe289       O290   2.067       .  S
Fe289       O298   1.982       .  S
O290        C297   1.267       .  A
O291        C305   1.267       .  A
O292        C297   1.264       .  A
O293        C296   1.269       .  A
O294        C306   1.273       .  A
O295        C308   1.268       .  A
C296        O301   1.270       .  A
C296        C833   1.465       .  S
C297        C853   1.482       .  S
O299        C302   1.271       .  A
O300        C302   1.270       .  A
C302        C902   1.482       .  S
O303        C308   1.264       .  A
O304        C306   1.272       .  A
C305        O307   1.265       .  A
C305       C1502   1.476       .  S
C306        C813   1.480   1_655  S
C308       C1342   1.474       .  S
Fe309       O325   2.049       .  S
Fe309       O315   2.050       .  S
Fe309       O322   2.063       .  S
Fe309       O314   2.059       .  S
Fe309       O320   1.951       .  S
Fe310       O313   2.074       .  S
Fe310       O317   2.072       .  S
Fe310       O321   2.077       .  S
Fe310       O326   2.060       .  S
Fe310       O320   1.965       .  S
Fe311       O329   2.056       .  S
Fe311       O316   2.079       .  S
Fe311       O323   2.084       .  S
Fe311       O312   2.068       .  S
Fe311       O320   1.969       .  S
O312        C319   1.269       .  A
O313        C327   1.271       .  A
O314        C319   1.267       .  A
O315        C318   1.268       .  A
O316        C328   1.273       .  A
O317        C330   1.268       .  A
C318        O323   1.272       .  A
C318       C1022   1.469       .  S
C319       C1253   1.483       .  S
O321        C324   1.273       .  A
O322        C324   1.272       .  A
C324        C782   1.482       .  S
O325        C330   1.265       .  A
O326        C328   1.271       .  A
C327        O329   1.268       .  A
C327        C793   1.479   1_554  S
C328        C873   1.482   1_554  S
C330       C1782   1.472       .  S
Fe331       O347   2.059       .  S
Fe331       O337   2.048       .  S
Fe331       O344   2.057       .  S
Fe331       O336   2.069       .  S
Fe331       O342   1.948       .  S
Fe332       O335   2.076       .  S
Fe332       O339   2.068       .  S
Fe332       O343   2.081       .  S
Fe332       O348   2.056       .  S
Fe332       O342   1.958       .  S
Fe333       O351   2.056       .  S
Fe333       O338   2.087       .  S
Fe333       O345   2.083       .  S
Fe333       O334   2.072       .  S
Fe333       O342   1.962       .  S
O334        C341   1.270       .  A
O335        C349   1.272       .  A
O336        C341   1.269       .  A
O337        C340   1.269       .  A
O338        C350   1.274       .  A
O339        C352   1.266       .  A
C340        O345   1.273       .  A
C340       C1642   1.471       .  S
C341       C1422   1.488       .  S
O343        C346   1.275       .  A
O344        C346   1.273       .  A
C346        C713   1.481       .  S
O347        C352   1.265       .  A
O348        C350   1.270       .  A
C349        O351   1.268       .  A
C349        C962   1.479       .  S
C350        C733   1.482       .  S
C352        C753   1.463       .  S
Fe353       O369   2.080       .  S
Fe353       O359   2.054       .  S
Fe353       O366   2.056       .  S
Fe353       O358   2.072       .  S
Fe353       O364   1.947       .  S
Fe354       O357   2.058       .  S
Fe354       O361   2.063       .  S
Fe354       O365   2.073       .  S
Fe354       O370   2.066       .  S
Fe354       O364   1.957       .  S
Fe355       O373   2.070       .  S
Fe355       O360   2.086       .  S
Fe355       O367   2.088       .  S
Fe355       O356   2.065       .  S
Fe355       O364   1.958       .  S
O356        C363   1.271       .  A
O357        C371   1.266       .  A
O358        C363   1.272       .  A
O359        C362   1.268       .  A
O360        C372   1.278       .  A
O361        C374   1.272       .  A
C362        O367   1.273       .  A
C362        C942   1.484       .  S
C363        C742   1.483       .  S
O365        C368   1.268       .  A
O366        C368   1.265       .  A
C368        C693   1.483       .  S
O369        C374   1.276       .  A
O370        C372   1.275       .  A
C371        O373   1.268       .  A
C371       C1802   1.481       .  S
C372        C773   1.483   1_455  S
C374        C673   1.479       .  S
Fe375       O391   2.048       .  S
Fe375       O381   2.074       .  S
Fe375       O388   2.070       .  S
Fe375       O380   2.051       .  S
Fe375       O386   1.946       .  S
Fe376       O379   2.051       .  S
Fe376       O383   2.103       .  S
Fe376       O387   2.061       .  S
Fe376       O392   2.090       .  S
Fe376       O386   1.952       .  S
Fe377       O395   2.081       .  S
Fe377       O382   2.051       .  S
Fe377       O389   2.062       .  S
Fe377       O378   2.094       .  S
Fe377       O386   1.951       .  S
O378        C385   1.277       .  A
O379        C393   1.265       .  A
O380        C385   1.271       .  A
O381        C384   1.268       .  A
O382        C394   1.271       .  A
O383        C396   1.281       .  A
C384        O389   1.265       .  A
C384       C1482   1.470       .  S
C385        C822   1.474       .  S
O387        C390   1.264       .  A
O388        C390   1.266       .  A
C390       C1142   1.486       .  S
O391        C396   1.274       .  A
O392        C394   1.278       .  A
C393        O395   1.271       .  A
C393        C653   1.480       .  S
C394        C722   1.477   1_556  S
C396       C1082   1.478       .  S
Fe397       O413   2.050       .  S
Fe397       O403   2.077       .  S
Fe397       O410   2.063       .  S
Fe397       O402   2.054       .  S
Fe397       O408   1.950       .  S
Fe398       O401   2.056       .  S
Fe398       O405   2.082       .  S
Fe398       O409   2.063       .  S
Fe398       O414   2.091       .  S
Fe398       O408   1.958       .  S
Fe399       O417   2.077       .  S
Fe399       O404   2.054       .  S
Fe399       O411   2.063       .  S
Fe399       O400   2.087       .  S
Fe399       O408   1.956       .  S
O400        C407   1.272       .  A
O401        C415   1.265       .  A
O402        C407   1.266       .  A
O403        C406   1.272       .  A
O404        C416   1.273       .  A
O405        C418   1.275       .  A
C406        O411   1.269       .  A
C406       C1902   1.467       .  S
C407        C613   1.481       .  S
O409        C412   1.268       .  A
O410        C412   1.268       .  A
C412        C802   1.481       .  S
O413        C418   1.271       .  A
O414        C416   1.278       .  A
C415        O417   1.268       .  A
C415       C1182   1.484       .  S
C416        C642   1.477       .  S
C418        C922   1.480       .  S
Fe419       O435   2.067       .  S
Fe419       O425   2.050       .  S
Fe419       O432   2.049       .  S
Fe419       O424   2.069       .  S
Fe419       O430   1.942       .  S
Fe420       O423   2.081       .  S
Fe420       O427   2.061       .  S
Fe420       O431   2.092       .  S
Fe420       O436   2.056       .  S
Fe420       O430   1.953       .  S
Fe421       O439   2.053       .  S
Fe421       O426   2.089       .  S
Fe421       O433   2.093       .  S
Fe421       O422   2.067       .  S
Fe421       O430   1.953       .  S
O422        C429   1.269       .  A
O423        C437   1.272       .  A
O424        C429   1.269       .  A
O425        C428   1.270       .  A
O426        C438   1.276       .  A
O427        C440   1.265       .  A
C428        O433   1.275       .  A
C428       C1733   1.479       .  S
C429       C1522   1.485       .  S
O431        C434   1.276       .  A
O432        C434   1.270       .  A
C434        C633   1.480       .  S
O435        C440   1.267       .  A
O436        C438   1.271       .  A
C437        O439   1.268       .  A
C437        C702   1.481       .  S
C438        C593   1.483   1_556  S
C440       C1162   1.460       .  S
Fe441       O457   2.050       .  S
Fe441       O447   2.049       .  S
Fe441       O454   2.057       .  S
Fe441       O446   2.059       .  S
Fe441       O452   1.965       .  S
Fe442       O445   2.071       .  S
Fe442       O449   2.064       .  S
Fe442       O453   2.082       .  S
Fe442       O458   2.054       .  S
Fe442       O452   1.980       .  S
Fe443       O461   2.064       .  S
Fe443       O448   2.083       .  S
Fe443       O455   2.088       .  S
Fe443       O444   2.070       .  S
Fe443       O452   1.979       .  S
O444        C451   1.269       .  A
O445        C459   1.269       .  A
O446        C451   1.267       .  A
O447        C450   1.268       .  A
O448        C460   1.275       .  A
O449        C462   1.267       .  A
C450        O455   1.272       .  A
C450       C1313   1.474       .  S
C451       C1053   1.486       .  S
O453        C456   1.273       .  A
O454        C456   1.269       .  A
C456        C582   1.486       .  S
O457        C462   1.266       .  A
O458        C460   1.270       .  A
C459        O461   1.268       .  A
C459       C1922   1.482       .  S
C460        C622   1.481   1_545  S
C462        C842   1.474       .  S
Fe463       O479   2.052       .  S
Fe463       O469   2.052       .  S
Fe463       O476   2.060       .  S
Fe463       O468   2.052       .  S
Fe463       O474   1.955       .  S
Fe464       O467   2.073       .  S
Fe464       O471   2.070       .  S
Fe464       O475   2.082       .  S
Fe464       O480   2.062       .  S
Fe464       O474   1.972       .  S
Fe465       O483   2.061       .  S
Fe465       O470   2.085       .  S
Fe465       O477   2.083       .  S
Fe465       O466   2.077       .  S
Fe465       O474   1.972       .  S
O466        C473   1.270       .  A
O467        C481   1.269       .  A
O468        C473   1.266       .  A
O469        C472   1.269       .  A
O470        C482   1.276       .  A
O471        C484   1.269       .  A
C472        O477   1.273       .  A
C472        C762   1.481       .  S
C473        C662   1.486       .  S
O475        C478   1.272       .  A
O476        C478   1.269       .  A
C478        C542   1.481       .  S
O479        C484   1.267       .  A
O480        C482   1.273       .  A
C481        O483   1.267       .  A
C481       C1233   1.483       .  S
C482        C553   1.484       .  S
C484       C1542   1.471       .  S
Fe485       O501   2.056       .  S
Fe485       O491   2.055       .  S
Fe485       O498   2.069       .  S
Fe485       O490   2.059       .  S
Fe485       O496   1.958       .  S
Fe486       O489   2.051       .  S
Fe486       O493   2.084       .  S
Fe486       O497   2.062       .  S
Fe486       O502   2.085       .  S
Fe486       O496   1.969       .  S
Fe487       O505   2.082       .  S
Fe487       O492   2.056       .  S
Fe487       O499   2.066       .  S
Fe487       O488   2.080       .  S
Fe487       O496   1.974       .  S
O488        C495   1.272       .  A
O489        C503   1.266       .  A
O490        C495   1.270       .  A
O491        C494   1.268       .  A
O492        C504   1.270       .  A
O493        C506   1.273       .  A
C494        O499   1.268       .  A
C494       C1222   1.469       .  S
C495        C562   1.485       .  S
O497        C500   1.268       .  A
O498        C500   1.269       .  A
C500       C1813   1.482       .  S
O501        C506   1.268       .  A
O502        C504   1.274       .  A
C503        O505   1.272       .  A
C503        C862   1.481       .  S
C504        C573   1.485   1_554  S
C506       C1442   1.482       .  S
Fe507       O523   2.050       .  S
Fe507       O513   2.045       .  S
Fe507       O520   2.061       .  S
Fe507       O512   2.056       .  S
Fe507       O518   1.963       .  S
Fe508       O511   2.058       .  S
Fe508       O515   2.086       .  S
Fe508       O519   2.069       .  S
Fe508       O524   2.076       .  S
Fe508       O518   1.978       .  S
Fe509       O527   2.084       .  S
Fe509       O514   2.063       .  S
Fe509       O521   2.070       .  S
Fe509       O510   2.091       .  S
Fe509       O518   1.984       .  S
O510        C517   1.277       .  A
O511        C525   1.270       .  A
O512        C517   1.272       .  A
O513        C516   1.263       .  A
O514        C526   1.269       .  A
O515        C528   1.273       .  A
C516        O521   1.265       .  A
C516        C682   1.474       .  S
C517        C602   1.486       .  S
O519        C522   1.268       .  A
O520        C522   1.266       .  A
C522       C1042   1.487       .  S
O523        C528   1.268       .  A
O524        C526   1.271       .  A
C525        O527   1.274       .  A
C525       C1562   1.486   1_565  S
C526        C533   1.487   1_565  S
C528        C973   1.474       .  S
C529        C530   1.408       .  A
C529        C534   1.397       .  A
C529        H539   1.083       .  S
C530        C535   1.496       .  S
C530        C531   1.409       .  A
C531        C532   1.402       .  A
C531        H536   1.081       .  S
C532        C533   1.406       .  A
C532        H537   1.084       .  S
C533        C534   1.406       .  A
C534        H538   1.082       .  S
C535        C540   1.410       .  A
C535        C544   1.408       .  A
C540        C541   1.400       .  A
C540        H545   1.082       .  S
C541        C542   1.404       .  A
C541        H546   1.084       .  S
C542        C543   1.405       .  A
C543        C544   1.399       .  A
C543        H547   1.082       .  S
C544        H548   1.083       .  S
C549        C550   1.406       .  A
C549        C554   1.397       .  A
C549        H559   1.083       .  S
C550        C555   1.491       .  S
C550        C551   1.408       .  A
C551        C552   1.400       .  A
C551        H556   1.082       .  S
C552        C553   1.406       .  A
C552        H557   1.083       .  S
C553        C554   1.406       .  A
C554        H558   1.083       .  S
C555        C560   1.407       .  A
C555        C564   1.407       .  A
C560        C561   1.396       .  A
C560        H565   1.082       .  S
C561        C562   1.405       .  A
C561        H566   1.083       .  S
C562        C563   1.408       .  A
C563        C564   1.401       .  A
C563        H567   1.083       .  S
C564        H568   1.083       .  S
C569        C570   1.407       .  A
C569        C574   1.398       .  A
C569        H579   1.083       .  S
C570        C575   1.492       .  S
C570        C571   1.408       .  A
C571        C572   1.400       .  A
C571        H576   1.082       .  S
C572        C573   1.405       .  A
C572        H577   1.083       .  S
C573        C574   1.407       .  A
C574        H578   1.083       .  S
C575        C580   1.407       .  A
C575        C584   1.407       .  A
C580        C581   1.401       .  A
C580        H585   1.083       .  S
C581        C582   1.407       .  A
C581        H586   1.083       .  S
C582        C583   1.406       .  A
C583        C584   1.397       .  A
C583        H587   1.083       .  S
C584        H588   1.082       .  S
C589        C590   1.407       .  A
C589        C594   1.398       .  A
C589        H599   1.082       .  S
C590        C595   1.491       .  S
C590        C591   1.407       .  A
C591        C592   1.400       .  A
C591        H596   1.083       .  S
C592        C593   1.405       .  A
C592        H597   1.083       .  S
C593        C594   1.406       .  A
C594        H598   1.083       .  S
C595        C600   1.406       .  A
C595        C604   1.408       .  A
C600        C601   1.395       .  A
C600        H605   1.083       .  S
C601        C602   1.406       .  A
C601        H606   1.083       .  S
C602        C603   1.407       .  A
C603        C604   1.402       .  A
C603        H607   1.083       .  S
C604        H608   1.083       .  S
C609        C610   1.409       .  A
C609        C614   1.399       .  A
C609        H619   1.081       .  S
C610        C615   1.493       .  S
C610        C611   1.407       .  A
C611        C612   1.398       .  A
C611        H616   1.083       .  S
C612        C613   1.405       .  A
C612        H617   1.082       .  S
C613        C614   1.404       .  A
C614        H618   1.084       .  S
C615        C620   1.410       .  A
C615        C624   1.407       .  A
C620        C621   1.401       .  A
C620        H625   1.081       .  S
C621        C622   1.404       .  A
C621        H626   1.084   1_565  S
C622        C623   1.405       .  A
C623        C624   1.395       .  A
C623        H627   1.082       .  S
C624        H628   1.083       .  S
C629        C630   1.406       .  A
C629        C634   1.395       .  A
C629        H639   1.083       .  S
C630        C635   1.486       .  S
C630        C631   1.406       .  A
C631        C632   1.399       .  A
C631        H636   1.083       .  S
C632        C633   1.407       .  A
C632        H637   1.083       .  S
C633        C634   1.404       .  A
C634        H638   1.083       .  S
C635        C640   1.408       .  A
C635        C644   1.405       .  A
C640        C641   1.399       .  A
C640        H645   1.083       .  S
C641        C642   1.404       .  A
C641        H646   1.083       .  S
C642        C643   1.404       .  A
C643        C644   1.395       .  A
C643        H647   1.083       .  S
C644        H648   1.083       .  S
C649        C650   1.411       .  A
C649        C654   1.402   1_554  A
C649        H659   1.082       .  S
C650        C655   1.495       .  S
C650        C651   1.407       .  A
C651        C652   1.396   1_554  A
C651        H656   1.082       .  S
C652        C653   1.404       .  A
C652        H657   1.084       .  S
C653        C654   1.403       .  A
C654        H658   1.083       .  S
C655        C660   1.406       .  A
C655        C664   1.411       .  A
C660        C661   1.395       .  A
C660        H665   1.082       .  S
C661        C662   1.407       .  A
C661        H666   1.083       .  S
C662        C663   1.405       .  A
C663        C664   1.402       .  A
C663        H667   1.083       .  S
C664        H668   1.082       .  S
C669        C670   1.402       .  A
C669        C674   1.404       .  A
C669        H679   1.083       .  S
C670        C675   1.473       .  S
C670        C671   1.401       .  A
C671        C672   1.391       .  A
C671        H676   1.084       .  S
C672        C673   1.404       .  A
C672        H677   1.083       .  S
C673        C674   1.409       .  A
C674        H678   1.083       .  S
C675        C680   1.404       .  A
C675        C684   1.401       .  A
C680        C681   1.404       .  A
C680        H685   1.083       .  S
C681        C682   1.407       .  A
C681        H686   1.083       .  S
C682        C683   1.404       .  A
C683        C684   1.391       .  A
C683        H687   1.083       .  S
C684        H688   1.084       .  S
C689        C690   1.406       .  A
C689        C694   1.398       .  A
C689        H699   1.083       .  S
C690        C695   1.487       .  S
C690        C691   1.406       .  A
C691        C692   1.397       .  A
C691        H696   1.083       .  S
C692        C693   1.407       .  A
C692        H697   1.083       .  S
C693        C694   1.406       .  A
C694        H698   1.083       .  S
C695        C700   1.407       .  A
C695        C704   1.405   1_554  A
C700        C701   1.397       .  A
C700        H705   1.083       .  S
C701        C702   1.404   1_554  A
C701        H706   1.083       .  S
C702        C703   1.407       .  A
C703        C704   1.398       .  A
C703        H707   1.083       .  S
C704        H708   1.083       .  S
C709        C710   1.404       .  A
C709        C714   1.397       .  A
C709        H719   1.083       .  S
C710        C715   1.484       .  S
C710        C711   1.406       .  A
C711        C712   1.396       .  A
C711        H716   1.083       .  S
C712        C713   1.405       .  A
C712        H717   1.083       .  S
C713        C714   1.407       .  A
C714        H718   1.083       .  S
C715        C720   1.404       .  A
C715        C724   1.408       .  A
C720        C721   1.395       .  A
C720        H725   1.083       .  S
C721        C722   1.406       .  A
C721        H726   1.083       .  S
C722        C723   1.403       .  A
C723        C724   1.399       .  A
C723        H727   1.083       .  S
C724        H728   1.083       .  S
C729        C730   1.406       .  A
C729        C734   1.397       .  A
C729        H739   1.083       .  S
C730        C735   1.489       .  S
C730        C731   1.407       .  A
C731        C732   1.400       .  A
C731        H736   1.083       .  S
C732        C733   1.405       .  A
C732        H737   1.083       .  S
C733        C734   1.406       .  A
C734        H738   1.083       .  S
C735        C740   1.407       .  A
C735        C744   1.406       .  A
C740        C741   1.397       .  A
C740        H745   1.083       .  S
C741        C742   1.405       .  A
C741        H746   1.083       .  S
C742        C743   1.407       .  A
C743        C744   1.401       .  A
C743        H747   1.083       .  S
C744        H748   1.083       .  S
C749        C750   1.407       .  A
C749        C754   1.398       .  A
C749        H759   1.083       .  S
C750        C755   1.488       .  S
C750        C751   1.408       .  A
C751        C752   1.398       .  A
C751        H756   1.082       .  S
C752        C753   1.400       .  A
C752        H757   1.084       .  S
C753        C754   1.401       .  A
C754        H758   1.084       .  S
C755        C760   1.406       .  A
C755        C764   1.408       .  A
C760        C761   1.394       .  A
C760        H765   1.083       .  S
C761        C762   1.405       .  A
C761        H766   1.083       .  S
C762        C763   1.406       .  A
C763        C764   1.401       .  A
C763        H767   1.083       .  S
C764        H768   1.082       .  S
C769        C770   1.406       .  A
C769        C774   1.395       .  A
C769        H779   1.082       .  S
C770        C775   1.492       .  S
C770        C771   1.409       .  A
C771        C772   1.401       .  A
C771        H776   1.083       .  S
C772        C773   1.406       .  A
C772        H777   1.082       .  S
C773        C774   1.405       .  A
C774        H778   1.084       .  S
C775        C780   1.409       .  A
C775        C784   1.407       .  A
C780        C781   1.399       .  A
C780        H785   1.083       .  S
C781        C782   1.404       .  A
C781        H786   1.083       .  S
C782        C783   1.406       .  A
C783        C784   1.397       .  A
C783        H787   1.083       .  S
C784        H788   1.082       .  S
C789        C790   1.408       .  A
C789        C794   1.397       .  A
C789        H799   1.082       .  S
C790        C795   1.490       .  S
C790        C791   1.407       .  A
C791        C792   1.398   1_556  A
C791        H796   1.082       .  S
C792        C793   1.405   1_554  A
C792        H797   1.083       .  S
C793        C794   1.403       .  A
C794        H798   1.083       .  S
C795        C800   1.407       .  A
C795        C804   1.407       .  A
C800        C801   1.398       .  A
C800        H805   1.082       .  S
C801        C802   1.406       .  A
C801        H806   1.084       .  S
C802        C803   1.404       .  A
C803        C804   1.397       .  A
C803        H807   1.083       .  S
C804        H808   1.083       .  S
C809        C810   1.407       .  A
C809        C814   1.399       .  A
C809        H819   1.083       .  S
C810        C815   1.488       .  S
C810        C811   1.407       .  A
C811        C812   1.394       .  A
C811        H816   1.082       .  S
C812        C813   1.404       .  A
C812        H817   1.083       .  S
C813        C814   1.406       .  A
C814        H818   1.083   1_455  S
C815        C820   1.408       .  A
C815        C824   1.407       .  A
C820        C821   1.397       .  A
C820        H825   1.083       .  S
C821        C822   1.403       .  A
C821        H826   1.083       .  S
C822        C823   1.404       .  A
C823        C824   1.396       .  A
C823        H827   1.084       .  S
C824        H828   1.082       .  S
C829        C830   1.408       .  A
C829        C834   1.400       .  A
C829        H839   1.083       .  S
C830        C835   1.480       .  S
C830        C831   1.404       .  A
C831        C832   1.391       .  A
C831        H836   1.083       .  S
C832        C833   1.401       .  A
C832        H837   1.084       .  S
C833        C834   1.401       .  A
C834        H838   1.083       .  S
C835        C840   1.406       .  A
C835        C844   1.404       .  A
C840        C841   1.401       .  A
C840        H845   1.083       .  S
C841        C842   1.405       .  A
C841        H846   1.083       .  S
C842        C843   1.403       .  A
C843        C844   1.389       .  A
C843        H847   1.083       .  S
C844        H848   1.083       .  S
C849        C850   1.406       .  A
C849        C854   1.398       .  A
C849        H859   1.082       .  S
C850        C855   1.490       .  S
C850        C851   1.408       .  A
C851        C852   1.398       .  A
C851        H856   1.082       .  S
C852        C853   1.405       .  A
C852        H857   1.083       .  S
C853        C854   1.406       .  A
C854        H858   1.083       .  S
C855        C860   1.406       .  A
C855        C864   1.409       .  A
C860        C861   1.397   1_556  A
C860        H865   1.082       .  S
C861        C862   1.406       .  A
C861        H866   1.083       .  S
C862        C863   1.404   1_554  A
C863        C864   1.399       .  A
C863        H867   1.083       .  S
C864        H868   1.083       .  S
C869        C870   1.406       .  A
C869        C874   1.400       .  A
C869        H879   1.083       .  S
C870        C875   1.487       .  S
C870        C871   1.406       .  A
C871        C872   1.397       .  A
C871        H876   1.083       .  S
C872        C873   1.405       .  A
C872        H877   1.083       .  S
C873        C874   1.406       .  A
C874        H878   1.083       .  S
C875        C880   1.407       .  A
C875        C884   1.405       .  A
C880        C881   1.402       .  A
C880        H885   1.083       .  S
C881        C882   1.408       .  A
C881        H886   1.083       .  S
C882        C883   1.405       .  A
C883        C884   1.395       .  A
C883        H887   1.083       .  S
C884        H888   1.083       .  S
C889        C890   1.409       .  A
C889        C894   1.399       .  A
C889        H899   1.083       .  S
C890        C895   1.488       .  S
C890        C891   1.405       .  A
C891        C892   1.395       .  A
C891        H896   1.082       .  S
C892        C893   1.405       .  A
C892        H897   1.083       .  S
C893        C894   1.404       .  A
C894        H898   1.083       .  S
C895        C900   1.407       .  A
C895        C904   1.406       .  A
C900        C901   1.396       .  A
C900        H905   1.082       .  S
C901        C902   1.405       .  A
C901        H906   1.083       .  S
C902        C903   1.407       .  A
C903        C904   1.398       .  A
C903        H907   1.083       .  S
C904        H908   1.083       .  S
C909        C910   1.407       .  A
C909        C914   1.393       .  A
C909        H919   1.083       .  S
C910        C915   1.487       .  S
C910        C911   1.408       .  A
C911        C912   1.398       .  A
C911        H916   1.082       .  S
C912        C913   1.402       .  A
C912        H917   1.084       .  S
C913        C914   1.401       .  A
C914        H918   1.083       .  S
C915        C920   1.406       .  A
C915        C924   1.407       .  A
C920        C921   1.391       .  A
C920        H925   1.082       .  S
C921        C922   1.404       .  A
C921        H926   1.083       .  S
C922        C923   1.406       .  A
C923        C924   1.400       .  A
C923        H927   1.083       .  S
C924        H928   1.082       .  S
C929        C930   1.410       .  A
C929        C934   1.405       .  A
C929        H939   1.082       .  S
C930        C935   1.497       .  S
C930        C931   1.407       .  A
C931        C932   1.395       .  A
C931        H936   1.082       .  S
C932        C933   1.405       .  A
C932        H937   1.083       .  S
C933        C934   1.406       .  A
C934        H938   1.083       .  S
C935        C940   1.409       .  A
C935        C944   1.409       .  A
C940        C941   1.403       .  A
C940        H945   1.082       .  S
C941        C942   1.406       .  A
C941        H946   1.083       .  S
C942        C943   1.405       .  A
C943        C944   1.397       .  A
C943        H947   1.083       .  S
C944        H948   1.083       .  S
C949        C950   1.408       .  A
C949        C954   1.398       .  A
C949        H959   1.082       .  S
C950        C955   1.491       .  S
C950        C951   1.407       .  A
C951        C952   1.397       .  A
C951        H956   1.082       .  S
C952        C953   1.406       .  A
C952        H957   1.083       .  S
C953        C954   1.406       .  A
C954        H958   1.083       .  S
C955        C960   1.409       .  A
C955        C964   1.407       .  A
C960        C961   1.397       .  A
C960        H965   1.082       .  S
C961        C962   1.403       .  A
C961        H966   1.083       .  S
C962        C963   1.405       .  A
C963        C964   1.398       .  A
C963        H967   1.083       .  S
C964        H968   1.082       .  S
C969        C970   1.403       .  A
C969        C974   1.396       .  A
C969        H979   1.083       .  S
C970        C975   1.478       .  S
C970        C971   1.405       .  A
C971        C972   1.400       .  A
C971        H976   1.083       .  S
C972        C973   1.404       .  A
C972        H977   1.083       .  S
C973        C974   1.404       .  A
C974        H978   1.084       .  S
C975        C980   1.406       .  A
C975        C984   1.402       .  A
C980        C981   1.402       .  A
C980        H985   1.083       .  S
C981        C982   1.405       .  A
C981        H986   1.083       .  S
C982        C983   1.405       .  A
C983        C984   1.394       .  A
C983        H987   1.084       .  S
C984        H988   1.083       .  S
C989        C990   1.407       .  A
C989        C994   1.397       .  A
C989        H999   1.083       .  S
C990        C995   1.491       .  S
C990        C991   1.408       .  A
C991        C992   1.398       .  A
C991        H996   1.082       .  S
C992        C993   1.405       .  A
C992        H997   1.083       .  S
C993        C994   1.403       .  A
C994        H998   1.083       .  S
C995       C1000   1.407       .  A
C995       C1004   1.407       .  A
C1000      C1001   1.400       .  A
C1000      H1005   1.083       .  S
C1001      C1002   1.407       .  A
C1001      H1006   1.083       .  S
C1002      C1003   1.405       .  A
C1003      C1004   1.395       .  A
C1003      H1007   1.083       .  S
C1004      H1008   1.082       .  S
C1009      C1010   1.409       .  A
C1009      C1014   1.403       .  A
C1009      H1019   1.083       .  S
C1010      C1015   1.487       .  S
C1010      C1011   1.406       .  A
C1011      C1012   1.390       .  A
C1011      H1016   1.082       .  S
C1012      C1013   1.402       .  A
C1012      H1017   1.084       .  S
C1013      C1014   1.404       .  A
C1014      H1018   1.083       .  S
C1015      C1020   1.409       .  A
C1015      C1024   1.407       .  A
C1020      C1021   1.400       .  A
C1020      H1025   1.082       .  S
C1021      C1022   1.401       .  A
C1021      H1026   1.084       .  S
C1022      C1023   1.401       .  A
C1023      C1024   1.394       .  A
C1023      H1027   1.083       .  S
C1024      H1028   1.083       .  S
C1029      C1030   1.408       .  A
C1029      C1034   1.402       .  A
C1029      H1039   1.082       .  S
C1030      C1035   1.493       .  S
C1030      C1031   1.406       .  A
C1031      C1032   1.397       .  A
C1031      H1036   1.083       .  S
C1032      C1033   1.406       .  A
C1032      H1037   1.083       .  S
C1033      C1034   1.407       .  A
C1034      H1038   1.083       .  S
C1035      C1040   1.408       .  A
C1035      C1044   1.406       .  A
C1040      C1041   1.400       .  A
C1040      H1045   1.083       .  S
C1041      C1042   1.406       .  A
C1041      H1046   1.083       .  S
C1042      C1043   1.408       .  A
C1043      C1044   1.399       .  A
C1043      H1047   1.083       .  S
C1044      H1048   1.082       .  S
C1049      C1050   1.406       .  A
C1049      C1054   1.398       .  A
C1049      H1059   1.082       .  S
C1050      C1055   1.493       .  S
C1050      C1051   1.409       .  A
C1051      C1052   1.400       .  A
C1051      H1056   1.083       .  S
C1052      C1053   1.405       .  A
C1052      H1057   1.083       .  S
C1053      C1054   1.408       .  A
C1054      H1058   1.083       .  S
C1055      C1060   1.410       .  A
C1055      C1064   1.405       .  A
C1060      C1061   1.404       .  A
C1060      H1065   1.082       .  S
C1061      C1062   1.406       .  A
C1061      H1066   1.083       .  S
C1062      C1063   1.407       .  A
C1063      C1064   1.394       .  A
C1063      H1067   1.083       .  S
C1064      H1068   1.083       .  S
C1069      C1070   1.408       .  A
C1069      C1074   1.402       .  A
C1069      H1079   1.083       .  S
C1070      C1075   1.492       .  S
C1070      C1071   1.407       .  A
C1071      C1072   1.395       .  A
C1071      H1076   1.082       .  S
C1072      C1073   1.406       .  A
C1072      H1077   1.083       .  S
C1073      C1074   1.406       .  A
C1074      H1078   1.083       .  S
C1075      C1080   1.407       .  A
C1075      C1084   1.409       .  A
C1080      C1081   1.395       .  A
C1080      H1085   1.083       .  S
C1081      C1082   1.405       .  A
C1081      H1086   1.083       .  S
C1082      C1083   1.403       .  A
C1083      C1084   1.401       .  A
C1083      H1087   1.083       .  S
C1084      H1088   1.082       .  S
C1089      C1090   1.406       .  A
C1089      C1094   1.395       .  A
C1089      H1099   1.082       .  S
C1090      C1095   1.488       .  S
C1090      C1091   1.407       .  A
C1091      C1092   1.399       .  A
C1091      H1096   1.083       .  S
C1092      C1093   1.405       .  A
C1092      H1097   1.083       .  S
C1093      C1094   1.403       .  A
C1094      H1098   1.084       .  S
C1095      C1100   1.405       .  A
C1095      C1104   1.407       .  A
C1100      C1101   1.392       .  A
C1100      H1105   1.083       .  S
C1101      C1102   1.406       .  A
C1101      H1106   1.083       .  S
C1102      C1103   1.406       .  A
C1103      C1104   1.401       .  A
C1103      H1107   1.083       .  S
C1104      H1108   1.082       .  S
C1109      C1110   1.407       .  A
C1109      C1114   1.397       .  A
C1109      H1119   1.083       .  S
C1110      C1115   1.492       .  S
C1110      C1111   1.407       .  A
C1111      C1112   1.404       .  A
C1111      H1116   1.083       .  S
C1112      C1113   1.408       .  A
C1112      H1117   1.083       .  S
C1113      C1114   1.405       .  A
C1114      H1118   1.083       .  S
C1115      C1120   1.409       .  A
C1115      C1124   1.405       .  A
C1120      C1121   1.404       .  A
C1120      H1125   1.083       .  S
C1121      C1122   1.406       .  A
C1121      H1126   1.083       .  S
C1122      C1123   1.406       .  A
C1123      C1124   1.397       .  A
C1123      H1127   1.083       .  S
C1124      H1128   1.083       .  S
C1129      C1130   1.407       .  A
C1129      C1134   1.397       .  A
C1129      H1139   1.083       .  S
C1130      C1135   1.493       .  S
C1130      C1131   1.408       .  A
C1131      C1132   1.402       .  A
C1131      H1136   1.082       .  S
C1132      C1133   1.406       .  A
C1132      H1137   1.083       .  S
C1133      C1134   1.407       .  A
C1134      H1138   1.083       .  S
C1135      C1140   1.406       .  A
C1135      C1144   1.408       .  A
C1140      C1141   1.399       .  A
C1140      H1145   1.083       .  S
C1141      C1142   1.407       .  A
C1141      H1146   1.083       .  S
C1142      C1143   1.406       .  A
C1143      C1144   1.400       .  A
C1143      H1147   1.083       .  S
C1144      H1148   1.082       .  S
C1149      C1150   1.402       .  A
C1149      C1154   1.392       .  A
C1149      H1159   1.084       .  S
C1150      C1155   1.475       .  S
C1150      C1151   1.405       .  A
C1151      C1152   1.400       .  A
C1151      H1156   1.083       .  S
C1152      C1153   1.406       .  A
C1152      H1157   1.083       .  S
C1153      C1154   1.404       .  A
C1154      H1158   1.083       .  S
C1155      C1160   1.403       .  A
C1155      C1164   1.406       .  A
C1160      C1161   1.395       .  A
C1160      H1165   1.083       .  S
C1161      C1162   1.401       .  A
C1161      H1166   1.084       .  S
C1162      C1163   1.400       .  A
C1163      C1164   1.398       .  A
C1163      H1167   1.083       .  S
C1164      H1168   1.083       .  S
C1169      C1170   1.408       .  A
C1169      C1174   1.400       .  A
C1169      H1179   1.082       .  S
C1170      C1175   1.494       .  S
C1170      C1171   1.408       .  A
C1171      C1172   1.398       .  A
C1171      H1176   1.082       .  S
C1172      C1173   1.406       .  A
C1172      H1177   1.083       .  S
C1173      C1174   1.407       .  A
C1174      H1178   1.083       .  S
C1175      C1180   1.408       .  A
C1175      C1184   1.409       .  A
C1180      C1181   1.399       .  A
C1180      H1185   1.082       .  S
C1181      C1182   1.406       .  A
C1181      H1186   1.083       .  S
C1182      C1183   1.405       .  A
C1183      C1184   1.399       .  A
C1183      H1187   1.083       .  S
C1184      H1188   1.082       .  S
C1189      C1190   1.407       .  A
C1189      C1194   1.396       .  A
C1189      H1199   1.081       .  S
C1190      C1195   1.491       .  S
C1190      C1191   1.408       .  A
C1191      C1192   1.399       .  A
C1191      H1196   1.083       .  S
C1192      C1193   1.406       .  A
C1192      H1197   1.082       .  S
C1193      C1194   1.405       .  A
C1194      H1198   1.084       .  S
C1195      C1200   1.408       .  A
C1195      C1204   1.408       .  A
C1200      C1201   1.398       .  A
C1200      H1205   1.083       .  S
C1201      C1202   1.404       .  A
C1201      H1206   1.083       .  S
C1202      C1203   1.403       .  A
C1203      C1204   1.397       .  A
C1203      H1207   1.084       .  S
C1204      H1208   1.081       .  S
C1209      C1210   1.403       .  A
C1209      C1214   1.404       .  A
C1209      H1219   1.083       .  S
C1210      C1215   1.473       .  S
C1210      C1211   1.401       .  A
C1211      C1212   1.387       .  A
C1211      H1216   1.084       .  S
C1212      C1213   1.404       .  A
C1212      H1217   1.083       .  S
C1213      C1214   1.409       .  A
C1214      H1218   1.083       .  S
C1215      C1220   1.404       .  A
C1215      C1224   1.402       .  A
C1220      C1221   1.403       .  A
C1220      H1225   1.083       .  S
C1221      C1222   1.406       .  A
C1221      H1226   1.083       .  S
C1222      C1223   1.401       .  A
C1223      C1224   1.389       .  A
C1223      H1227   1.084       .  S
C1224      H1228   1.084       .  S
C1229      C1230   1.408       .  A
C1229      C1234   1.398       .  A
C1229      H1239   1.082       .  S
C1230      C1235   1.493       .  S
C1230      C1231   1.408       .  A
C1231      C1232   1.399       .  A
C1231      H1236   1.082       .  S
C1232      C1233   1.405       .  A
C1232      H1237   1.083       .  S
C1233      C1234   1.405       .  A
C1234      H1238   1.083       .  S
C1235      C1240   1.409       .  A
C1235      C1244   1.406       .  A
C1240      C1241   1.401       .  A
C1240      H1245   1.082       .  S
C1241      C1242   1.406       .  A
C1241      H1246   1.083       .  S
C1242      C1243   1.406       .  A
C1243      C1244   1.395       .  A
C1243      H1247   1.083       .  S
C1244      H1248   1.082       .  S
C1249      C1250   1.403       .  A
C1249      C1254   1.394       .  A
C1249      H1259   1.083       .  S
C1250      C1255   1.485       .  S
C1250      C1251   1.408       .  A
C1251      C1252   1.401       .  A
C1251      H1256   1.083       .  S
C1252      C1253   1.406       .  A
C1252      H1257   1.083       .  S
C1253      C1254   1.407       .  A
C1254      H1258   1.083       .  S
C1255      C1260   1.408       .  A
C1255      C1264   1.403       .  A
C1260      C1261   1.401       .  A
C1260      H1265   1.083       .  S
C1261      C1262   1.405       .  A
C1261      H1266   1.083       .  S
C1262      C1263   1.407       .  A
C1263      C1264   1.394       .  A
C1263      H1267   1.083       .  S
C1264      H1268   1.083       .  S
C1269      C1270   1.407       .  A
C1269      C1274   1.403       .  A
C1269      H1279   1.083       .  S
C1270      C1275   1.485       .  S
C1270      C1271   1.404       .  A
C1271      C1272   1.391       .  A
C1271      H1276   1.083       .  S
C1272      C1273   1.405       .  A
C1272      H1277   1.083       .  S
C1273      C1274   1.408       .  A
C1274      H1278   1.083       .  S
C1275      C1280   1.405       .  A
C1275      C1284   1.406       .  A
C1280      C1281   1.399       .  A
C1280      H1285   1.083       .  S
C1281      C1282   1.407       .  A
C1281      H1286   1.083       .  S
C1282      C1283   1.404       .  A
C1283      C1284   1.395       .  A
C1283      H1287   1.083       .  S
C1284      H1288   1.083       .  S
C1289      C1290   1.406       .  A
C1289      C1294   1.396       .  A
C1289      H1299   1.082       .  S
C1290      C1295   1.492       .  S
C1290      C1291   1.409       .  A
C1291      C1292   1.401       .  A
C1291      H1296   1.082       .  S
C1292      C1293   1.405       .  A
C1292      H1297   1.083       .  S
C1293      C1294   1.406       .  A
C1294      H1298   1.083       .  S
C1295      C1300   1.409       .  A
C1295      C1304   1.406       .  A
C1300      C1301   1.400       .  A
C1300      H1305   1.083       .  S
C1301      C1302   1.405       .  A
C1301      H1306   1.083       .  S
C1302      C1303   1.407       .  A
C1303      C1304   1.396       .  A
C1303      H1307   1.083       .  S
C1304      H1308   1.082       .  S
C1309      C1310   1.405       .  A
C1309      C1314   1.392       .  A
C1309      H1319   1.083       .  S
C1310      C1315   1.488       .  S
C1310      C1311   1.409       .  A
C1311      C1312   1.406       .  A
C1311      H1316   1.083       .  S
C1312      C1313   1.404       .  A
C1312      H1317   1.083       .  S
C1313      C1314   1.402       .  A
C1314      H1318   1.084       .  S
C1315      C1320   1.404       .  A
C1315      C1324   1.409       .  A
C1320      C1321   1.388       .  A
C1320      H1325   1.083       .  S
C1321      C1322   1.403       .  A
C1321      H1326   1.084       .  S
C1322      C1323   1.406       .  A
C1323      C1324   1.408       .  A
C1323      H1327   1.083       .  S
C1324      H1328   1.083       .  S
C1329      C1330   1.408       .  A
C1329      C1334   1.401       .  A
C1329      H1339   1.082       .  S
C1330      C1335   1.487       .  S
C1330      C1331   1.408       .  A
C1331      C1332   1.393       .  A
C1331      H1336   1.083       .  S
C1332      C1333   1.400       .  A
C1332      H1337   1.083       .  S
C1333      C1334   1.403       .  A
C1334      H1338   1.084       .  S
C1335      C1340   1.410       .  A
C1335      C1344   1.404       .  A
C1340      C1341   1.405       .  A
C1340      H1345   1.082       .  S
C1341      C1342   1.404       .  A
C1341      H1346   1.083       .  S
C1342      C1343   1.403       .  A
C1343      C1344   1.387       .  A
C1343      H1347   1.084       .  S
C1344      H1348   1.083       .  S
C1349      C1350   1.409       .  A
C1349      C1354   1.397       .  A
C1349      H1359   1.082       .  S
C1350      C1355   1.493       .  S
C1350      C1351   1.408       .  A
C1351      C1352   1.399       .  A
C1351      H1356   1.082       .  S
C1352      C1353   1.404       .  A
C1352      H1357   1.083       .  S
C1353      C1354   1.404       .  A
C1354      H1358   1.083       .  S
C1355      C1360   1.410       .  A
C1355      C1364   1.408       .  A
C1360      C1361   1.398       .  A
C1360      H1365   1.082       .  S
C1361      C1362   1.402       .  A
C1361      H1366   1.083       .  S
C1362      C1363   1.404       .  A
C1363      C1364   1.398       .  A
C1363      H1367   1.083       .  S
C1364      H1368   1.082       .  S
C1369      C1370   1.405       .  A
C1369      C1374   1.393       .  A
C1369      H1379   1.083       .  S
C1370      C1375   1.485       .  S
C1370      C1371   1.408       .  A
C1371      C1372   1.400       .  A
C1371      H1376   1.083       .  S
C1372      C1373   1.404       .  A
C1372      H1377   1.083       .  S
C1373      C1374   1.405       .  A
C1374      H1378   1.084       .  S
C1375      C1380   1.407       .  A
C1375      C1384   1.405       .  A
C1380      C1381   1.401       .  A
C1380      H1385   1.082       .  S
C1381      C1382   1.407       .  A
C1381      H1386   1.083       .  S
C1382      C1383   1.405       .  A
C1383      C1384   1.392       .  A
C1383      H1387   1.083       .  S
C1384      H1388   1.083       .  S
C1389      C1390   1.407       .  A
C1389      C1394   1.400       .  A
C1389      H1399   1.082       .  S
C1390      C1395   1.491       .  S
C1390      C1391   1.407       .  A
C1391      C1392   1.396       .  A
C1391      H1396   1.082       .  S
C1392      C1393   1.404       .  A
C1392      H1397   1.083       .  S
C1393      C1394   1.406       .  A
C1394      H1398   1.083       .  S
C1395      C1400   1.409       .  A
C1395      C1404   1.407       .  A
C1400      C1401   1.399       .  A
C1400      H1405   1.082       .  S
C1401      C1402   1.404       .  A
C1401      H1406   1.083       .  S
C1402      C1403   1.404       .  A
C1403      C1404   1.397       .  A
C1403      H1407   1.083       .  S
C1404      H1408   1.083       .  S
C1409      C1410   1.407       .  A
C1409      C1414   1.397   1_455  A
C1409      H1419   1.082       .  S
C1410      C1415   1.497       .  S
C1410      C1411   1.411       .  A
C1411      C1412   1.402       .  A
C1411      H1416   1.082       .  S
C1412      C1413   1.405   1_455  A
C1412      H1417   1.083       .  S
C1413      C1414   1.407       .  A
C1414      H1418   1.083       .  S
C1415      C1420   1.410       .  A
C1415      C1424   1.406       .  A
C1420      C1421   1.402       .  A
C1420      H1425   1.082       .  S
C1421      C1422   1.405       .  A
C1421      H1426   1.083       .  S
C1422      C1423   1.408       .  A
C1423      C1424   1.397       .  A
C1423      H1427   1.083       .  S
C1424      H1428   1.082       .  S
C1429      C1430   1.405       .  A
C1429      C1434   1.396       .  A
C1429      H1439   1.083       .  S
C1430      C1435   1.484       .  S
C1430      C1431   1.408       .  A
C1431      C1432   1.401       .  A
C1431      H1436   1.084       .  S
C1432      C1433   1.402       .  A
C1432      H1437   1.083       .  S
C1433      C1434   1.402       .  A
C1434      H1438   1.084       .  S
C1435      C1440   1.406       .  A
C1435      C1444   1.404       .  A
C1440      C1441   1.401       .  A
C1440      H1445   1.083       .  S
C1441      C1442   1.406       .  A
C1441      H1446   1.083       .  S
C1442      C1443   1.406       .  A
C1443      C1444   1.397       .  A
C1443      H1447   1.084       .  S
C1444      H1448   1.083       .  S
C1449      C1450   1.402       .  A
C1449      C1454   1.391       .  A
C1449      H1459   1.084       .  S
C1450      C1455   1.473       .  S
C1450      C1451   1.402       .  A
C1451      C1452   1.401       .  A
C1451      H1456   1.083       .  S
C1452      C1453   1.407       .  A
C1452      H1457   1.083       .  S
C1453      C1454   1.404       .  A
C1454      H1458   1.083       .  S
C1455      C1460   1.400       .  A
C1455      C1464   1.404       .  A
C1460      C1461   1.387       .  A
C1460      H1465   1.084       .  S
C1461      C1462   1.405       .  A
C1461      H1466   1.083       .  S
C1462      C1463   1.409       .  A
C1463      C1464   1.404       .  A
C1463      H1467   1.083       .  S
C1464      H1468   1.083       .  S
C1469      C1470   1.402       .  A
C1469      C1474   1.395       .  A
C1469      H1479   1.083       .  S
C1470      C1475   1.475       .  S
C1470      C1471   1.405       .  A
C1471      C1472   1.400       .  A
C1471      H1476   1.083       .  S
C1472      C1473   1.403       .  A
C1472      H1477   1.083       .  S
C1473      C1474   1.403       .  A
C1474      H1478   1.084       .  S
C1475      C1480   1.405       .  A
C1475      C1484   1.402       .  A
C1480      C1481   1.400       .  A
C1480      H1485   1.083       .  S
C1481      C1482   1.403       .  A
C1481      H1486   1.083       .  S
C1482      C1483   1.404       .  A
C1483      C1484   1.394       .  A
C1483      H1487   1.084       .  S
C1484      H1488   1.083       .  S
C1489      C1490   1.408       .  A
C1489      C1494   1.396       .  A
C1489      H1499   1.082       .  S
C1490      C1495   1.491       .  S
C1490      C1491   1.407       .  A
C1491      C1492   1.399       .  A
C1491      H1496   1.083       .  S
C1492      C1493   1.406       .  A
C1492      H1497   1.083       .  S
C1493      C1494   1.405       .  A
C1494      H1498   1.083       .  S
C1495      C1500   1.407       .  A
C1495      C1504   1.409       .  A
C1500      C1501   1.397   1_455  A
C1500      H1505   1.083   1_455  S
C1501      C1502   1.404       .  A
C1501      H1506   1.083       .  S
C1502      C1503   1.402   1_655  A
C1503      C1504   1.398       .  A
C1503      H1507   1.083       .  S
C1504      H1508   1.082       .  S
C1509      C1510   1.408       .  A
C1509      C1514   1.402       .  A
C1509      H1519   1.083       .  S
C1510      C1515   1.490       .  S
C1510      C1511   1.405       .  A
C1511      C1512   1.395   1_565  A
C1511      H1516   1.083       .  S
C1512      C1513   1.406       .  A
C1512      H1517   1.083       .  S
C1513      C1514   1.407   1_545  A
C1514      H1518   1.083       .  S
C1515      C1520   1.405       .  A
C1515      C1524   1.408       .  A
C1520      C1521   1.397       .  A
C1520      H1525   1.082       .  S
C1521      C1522   1.408       .  A
C1521      H1526   1.083       .  S
C1522      C1523   1.405       .  A
C1523      C1524   1.400       .  A
C1523      H1527   1.083       .  S
C1524      H1528   1.083       .  S
C1529      C1530   1.406       .  A
C1529      C1534   1.393       .  A
C1529      H1539   1.083       .  S
C1530      C1535   1.486       .  S
C1530      C1531   1.408       .  A
C1531      C1532   1.401       .  A
C1531      H1536   1.083       .  S
C1532      C1533   1.402       .  A
C1532      H1537   1.083       .  S
C1533      C1534   1.402       .  A
C1534      H1538   1.084       .  S
C1535      C1540   1.405       .  A
C1535      C1544   1.409       .  A
C1540      C1541   1.389       .  A
C1540      H1545   1.083       .  S
C1541      C1542   1.402       .  A
C1541      H1546   1.084       .  S
C1542      C1543   1.403       .  A
C1543      C1544   1.404       .  A
C1543      H1547   1.083       .  S
C1544      H1548   1.082       .  S
C1549      C1550   1.411       .  A
C1549      C1554   1.402       .  A
C1549      H1559   1.082       .  S
C1550      C1555   1.496       .  S
C1550      C1551   1.406       .  A
C1551      C1552   1.395       .  A
C1551      H1556   1.082       .  S
C1552      C1553   1.407       .  A
C1552      H1557   1.083       .  S
C1553      C1554   1.405       .  A
C1554      H1558   1.083       .  S
C1555      C1560   1.407       .  A
C1555      C1564   1.411       .  A
C1560      C1561   1.396       .  A
C1560      H1565   1.082       .  S
C1561      C1562   1.406       .  A
C1561      H1566   1.083   1_545  S
C1562      C1563   1.405       .  A
C1563      C1564   1.402       .  A
C1563      H1567   1.083       .  S
C1564      H1568   1.082       .  S
C1569      C1570   1.406       .  A
C1569      C1574   1.397       .  A
C1569      H1579   1.083       .  S
C1570      C1575   1.491       .  S
C1570      C1571   1.409       .  A
C1571      C1572   1.400       .  A
C1571      H1576   1.082       .  S
C1572      C1573   1.404       .  A
C1572      H1577   1.083       .  S
C1573      C1574   1.406       .  A
C1574      H1578   1.083       .  S
C1575      C1580   1.408       .  A
C1575      C1584   1.407       .  A
C1580      C1581   1.396       .  A
C1580      H1585   1.082       .  S
C1581      C1582   1.405       .  A
C1581      H1586   1.084       .  S
C1582      C1583   1.407       .  A
C1583      C1584   1.400       .  A
C1583      H1587   1.082       .  S
C1584      H1588   1.083       .  S
C1589      C1590   1.406       .  A
C1589      C1594   1.401       .  A
C1589      H1599   1.083       .  S
C1590      C1595   1.488       .  S
C1590      C1591   1.406       .  A
C1591      C1592   1.396       .  A
C1591      H1596   1.083       .  S
C1592      C1593   1.405       .  A
C1592      H1597   1.083       .  S
C1593      C1594   1.408       .  A
C1594      H1598   1.083       .  S
C1595      C1600   1.405       .  A
C1595      C1604   1.408       .  A
C1600      C1601   1.397       .  A
C1600      H1605   1.083       .  S
C1601      C1602   1.406   1_455  A
C1601      H1606   1.083   1_455  S
C1602      C1603   1.405   1_655  A
C1603      C1604   1.400       .  A
C1603      H1607   1.083       .  S
C1604      H1608   1.083       .  S
C1609      C1610   1.407       .  A
C1609      C1614   1.400       .  A
C1609      H1619   1.083       .  S
C1610      C1615   1.489       .  S
C1610      C1611   1.406       .  A
C1611      C1612   1.397       .  A
C1611      H1616   1.083       .  S
C1612      C1613   1.406       .  A
C1612      H1617   1.083       .  S
C1613      C1614   1.406       .  A
C1614      H1618   1.083       .  S
C1615      C1620   1.407       .  A
C1615      C1624   1.406       .  A
C1620      C1621   1.401       .  A
C1620      H1625   1.083       .  S
C1621      C1622   1.407       .  A
C1621      H1626   1.083       .  S
C1622      C1623   1.406       .  A
C1623      C1624   1.396       .  A
C1623      H1627   1.083       .  S
C1624      H1628   1.083       .  S
C1629      C1630   1.409       .  A
C1629      C1634   1.403       .  A
C1629      H1639   1.083       .  S
C1630      C1635   1.483       .  S
C1630      C1631   1.404       .  A
C1631      C1632   1.388       .  A
C1631      H1636   1.082       .  S
C1632      C1633   1.402       .  A
C1632      H1637   1.084       .  S
C1633      C1634   1.403       .  A
C1634      H1638   1.083       .  S
C1635      C1640   1.406       .  A
C1635      C1644   1.406       .  A
C1640      C1641   1.398       .  A
C1640      H1645   1.082       .  S
C1641      C1642   1.403       .  A
C1641      H1646   1.084       .  S
C1642      C1643   1.402       .  A
C1643      C1644   1.393       .  A
C1643      H1647   1.083       .  S
C1644      H1648   1.083       .  S
C1649      C1650   1.406       .  A
C1649      C1654   1.401       .  A
C1649      H1659   1.083       .  S
C1650      C1655   1.484       .  S
C1650      C1651   1.406       .  A
C1651      C1652   1.393       .  A
C1651      H1656   1.083       .  S
C1652      C1653   1.401       .  A
C1652      H1657   1.083       .  S
C1653      C1654   1.404       .  A
C1654      H1658   1.084       .  S
C1655      C1660   1.404       .  A
C1655      C1664   1.406       .  A
C1660      C1661   1.390       .  A
C1660      H1665   1.083       .  S
C1661      C1662   1.405       .  A
C1661      H1666   1.083       .  S
C1662      C1663   1.408       .  A
C1663      C1664   1.404       .  A
C1663      H1667   1.083       .  S
C1664      H1668   1.083       .  S
C1669      C1670   1.410       .  A
C1669      C1674   1.402       .  A
C1669      H1679   1.082       .  S
C1670      C1675   1.493       .  S
C1670      C1671   1.405       .  A
C1671      C1672   1.394       .  A
C1671      H1676   1.082       .  S
C1672      C1673   1.406       .  A
C1672      H1677   1.083       .  S
C1673      C1674   1.406       .  A
C1674      H1678   1.083       .  S
C1675      C1680   1.407       .  A
C1675      C1684   1.410       .  A
C1680      C1681   1.396       .  A
C1680      H1685   1.082       .  S
C1681      C1682   1.406       .  A
C1681      H1686   1.083       .  S
C1682      C1683   1.402       .  A
C1683      C1684   1.400       .  A
C1683      H1687   1.083       .  S
C1684      H1688   1.082       .  S
C1689      C1690   1.409       .  A
C1689      C1694   1.398       .  A
C1689      H1699   1.082       .  S
C1690      C1695   1.493       .  S
C1690      C1691   1.407       .  A
C1691      C1692   1.398       .  A
C1691      H1696   1.082       .  S
C1692      C1693   1.405       .  A
C1692      H1697   1.083       .  S
C1693      C1694   1.404       .  A
C1694      H1698   1.083       .  S
C1695      C1700   1.406       .  A
C1695      C1704   1.409       .  A
C1700      C1701   1.394       .  A
C1700      H1705   1.082       .  S
C1701      C1702   1.405       .  A
C1701      H1706   1.083       .  S
C1702      C1703   1.406       .  A
C1703      C1704   1.402       .  A
C1703      H1707   1.083   1_565  S
C1704      H1708   1.082       .  S
C1709      C1710   1.409       .  A
C1709      C1714   1.402       .  A
C1709      H1719   1.082       .  S
C1710      C1715   1.494       .  S
C1710      C1711   1.407       .  A
C1711      C1712   1.395       .  A
C1711      H1716   1.082       .  S
C1712      C1713   1.405   1_655  A
C1712      H1717   1.083   1_655  S
C1713      C1714   1.405   1_455  A
C1714      H1718   1.083   1_655  S
C1715      C1720   1.409       .  A
C1715      C1724   1.407       .  A
C1720      C1721   1.399       .  A
C1720      H1725   1.082       .  S
C1721      C1722   1.404       .  A
C1721      H1726   1.083       .  S
C1722      C1723   1.406       .  A
C1723      C1724   1.398       .  A
C1723      H1727   1.083       .  S
C1724      H1728   1.082       .  S
C1729      C1730   1.405       .  A
C1729      C1734   1.393       .  A
C1729      H1739   1.084       .  S
C1730      C1735   1.486       .  S
C1730      C1731   1.407       .  A
C1731      C1732   1.402       .  A
C1731      H1736   1.082       .  S
C1732      C1733   1.406       .  A
C1732      H1737   1.083       .  S
C1733      C1734   1.404       .  A
C1734      H1738   1.083       .  S
C1735      C1740   1.404       .  A
C1735      C1744   1.409       .  A
C1740      C1741   1.389       .  A
C1740      H1745   1.083       .  S
C1741      C1742   1.403       .  A
C1741      H1746   1.084       .  S
C1742      C1743   1.405       .  A
C1743      C1744   1.405       .  A
C1743      H1747   1.082       .  S
C1744      H1748   1.083       .  S
C1749      C1750   1.408       .  A
C1749      C1754   1.398       .  A
C1749      H1759   1.082       .  S
C1750      C1755   1.490       .  S
C1750      C1751   1.406       .  A
C1751      C1752   1.397       .  A
C1751      H1756   1.083       .  S
C1752      C1753   1.406       .  A
C1752      H1757   1.083       .  S
C1753      C1754   1.404       .  A
C1754      H1758   1.083       .  S
C1755      C1760   1.407       .  A
C1755      C1764   1.407       .  A
C1760      C1761   1.400       .  A
C1760      H1765   1.083       .  S
C1761      C1762   1.406       .  A
C1761      H1766   1.083       .  S
C1762      C1763   1.406       .  A
C1763      C1764   1.396       .  A
C1763      H1767   1.083       .  S
C1764      H1768   1.082       .  S
C1769      C1770   1.406       .  A
C1769      C1774   1.393       .  A
C1769      H1779   1.083       .  S
C1770      C1775   1.486       .  S
C1770      C1771   1.409       .  A
C1771      C1772   1.402       .  A
C1771      H1776   1.082       .  S
C1772      C1773   1.402       .  A
C1772      H1777   1.083       .  S
C1773      C1774   1.401       .  A
C1774      H1778   1.084       .  S
C1775      C1780   1.405       .  A
C1775      C1784   1.409       .  A
C1780      C1781   1.389       .  A
C1780      H1785   1.083       .  S
C1781      C1782   1.402       .  A
C1781      H1786   1.084       .  S
C1782      C1783   1.404       .  A
C1783      C1784   1.404       .  A
C1783      H1787   1.083       .  S
C1784      H1788   1.083       .  S
C1789      C1790   1.404       .  A
C1789      C1794   1.396       .  A
C1789      H1799   1.083       .  S
C1790      C1795   1.487       .  S
C1790      C1791   1.408       .  A
C1791      C1792   1.398       .  A
C1791      H1796   1.082       .  S
C1792      C1793   1.405       .  A
C1792      H1797   1.083       .  S
C1793      C1794   1.407       .  A
C1794      H1798   1.083       .  S
C1795      C1800   1.409       .  A
C1795      C1804   1.404       .  A
C1800      C1801   1.402       .  A
C1800      H1805   1.082       .  S
C1801      C1802   1.405   1_655  A
C1801      H1806   1.083       .  S
C1802      C1803   1.406   1_455  A
C1803      C1804   1.392       .  A
C1803      H1807   1.083       .  S
C1804      H1808   1.083       .  S
C1809      C1810   1.408       .  A
C1809      C1814   1.399       .  A
C1809      H1819   1.082       .  S
C1810      C1815   1.494       .  S
C1810      C1811   1.408       .  A
C1811      C1812   1.398       .  A
C1811      H1816   1.082       .  S
C1812      C1813   1.405       .  A
C1812      H1817   1.083       .  S
C1813      C1814   1.405       .  A
C1814      H1818   1.083       .  S
C1815      C1820   1.409       .  A
C1815      C1824   1.408       .  A
C1820      C1821   1.397       .  A
C1820      H1825   1.082       .  S
C1821      C1822   1.403   1_545  A
C1821      H1826   1.083       .  S
C1822      C1823   1.405       .  A
C1823      C1824   1.400   1_565  A
C1823      H1827   1.083       .  S
C1824      H1828   1.082       .  S
C1829      C1830   1.408       .  A
C1829      C1834   1.402       .  A
C1829      H1839   1.083       .  S
C1830      C1835   1.482       .  S
C1830      C1831   1.405       .  A
C1831      C1832   1.389       .  A
C1831      H1836   1.082       .  S
C1832      C1833   1.402       .  A
C1832      H1837   1.084       .  S
C1833      C1834   1.403       .  A
C1834      H1838   1.083       .  S
C1835      C1840   1.408       .  A
C1835      C1844   1.406       .  A
C1840      C1841   1.400       .  A
C1840      H1845   1.082       .  S
C1841      C1842   1.401       .  A
C1841      H1846   1.084       .  S
C1842      C1843   1.400       .  A
C1843      C1844   1.392       .  A
C1843      H1847   1.083       .  S
C1844      H1848   1.083       .  S
C1849      C1850   1.406       .  A
C1849      C1854   1.397       .  A
C1849      H1859   1.082       .  S
C1850      C1855   1.488       .  S
C1850      C1851   1.406       .  A
C1851      C1852   1.400       .  A
C1851      H1856   1.083       .  S
C1852      C1853   1.407       .  A
C1852      H1857   1.082       .  S
C1853      C1854   1.406       .  A
C1854      H1858   1.083       .  S
C1855      C1860   1.406       .  A
C1855      C1864   1.407       .  A
C1860      C1861   1.397       .  A
C1860      H1865   1.083       .  S
C1861      C1862   1.406       .  A
C1861      H1866   1.083       .  S
C1862      C1863   1.405       .  A
C1863      C1864   1.399       .  A
C1863      H1867   1.083       .  S
C1864      H1868   1.082       .  S
C1869      C1870   1.409       .  A
C1869      C1874   1.401       .  A
C1869      H1879   1.082       .  S
C1870      C1875   1.493       .  S
C1870      C1871   1.406       .  A
C1871      C1872   1.397       .  A
C1871      H1876   1.083       .  S
C1872      C1873   1.406       .  A
C1872      H1877   1.083       .  S
C1873      C1874   1.405       .  A
C1874      H1878   1.083       .  S
C1875      C1880   1.408       .  A
C1875      C1884   1.407       .  A
C1880      C1881   1.397       .  A
C1880      H1885   1.083       .  S
C1881      C1882   1.405       .  A
C1881      H1886   1.083       .  S
C1882      C1883   1.407       .  A
C1883      C1884   1.400       .  A
C1883      H1887   1.083       .  S
C1884      H1888   1.082       .  S
C1889      C1890   1.406       .  A
C1889      C1894   1.399       .  A
C1889      H1899   1.083       .  S
C1890      C1895   1.477       .  S
C1890      C1891   1.403       .  A
C1891      C1892   1.396       .  A
C1891      H1896   1.083       .  S
C1892      C1893   1.404       .  A
C1892      H1897   1.084       .  S
C1893      C1894   1.403       .  A
C1894      H1898   1.083       .  S
C1895      C1900   1.403       .  A
C1895      C1904   1.406       .  A
C1900      C1901   1.393       .  A
C1900      H1905   1.083       .  S
C1901      C1902   1.401       .  A
C1901      H1906   1.084       .  S
C1902      C1903   1.403       .  A
C1903      C1904   1.401       .  A
C1903      H1907   1.083       .  S
C1904      H1908   1.083       .  S
C1909      C1910   1.407       .  A
C1909      C1914   1.396       .  A
C1909      H1919   1.082       .  S
C1910      C1915   1.496       .  S
C1910      C1911   1.410       .  A
C1911      C1912   1.402       .  A
C1911      H1916   1.082       .  S
C1912      C1913   1.406       .  A
C1912      H1917   1.083       .  S
C1913      C1914   1.405       .  A
C1914      H1918   1.083       .  S
C1915      C1920   1.409       .  A
C1915      C1924   1.409       .  A
C1920      C1921   1.399   1_565  A
C1920      H1925   1.082   1_565  S
C1921      C1922   1.404       .  A
C1921      H1926   1.084       .  S
C1922      C1923   1.404   1_545  A
C1923      C1924   1.400       .  A
C1923      H1927   1.083       .  S
C1924      H1928   1.082       .  S
C1929      C1930   1.404       .  A
C1929      C1934   1.404       .  A
C1929      H1939   1.083       .  S
C1930      C1935   1.478       .  S
C1930      C1931   1.403       .  A
C1931      C1932   1.391       .  A
C1931      H1936   1.084       .  S
C1932      C1933   1.403       .  A
C1932      H1937   1.084       .  S
C1933      C1934   1.407       .  A
C1934      H1938   1.083       .  S
C1935      C1940   1.405       .  A
C1935      C1944   1.401       .  A
C1940      C1941   1.406       .  A
C1940      H1945   1.083       .  S
C1941      C1942   1.409       .  A
C1941      H1946   1.083       .  S
C1942      C1943   1.405       .  A
C1943      C1944   1.388       .  A
C1943      H1947   1.083       .  S
C1944      H1948   1.084       .  S
C1949      C1950   1.404       .  A
C1949      C1954   1.393       .  A
C1949      H1959   1.083       .  S
C1950      C1955   1.489       .  S
C1950      C1951   1.409       .  A
C1951      C1952   1.402       .  A
C1951      H1956   1.082       .  S
C1952      C1953   1.406       .  A
C1952      H1957   1.083       .  S
C1953      C1954   1.407       .  A
C1954      H1958   1.083       .  S
C1955      C1960   1.408       .  A
C1955      C1964   1.405       .  A
C1960      C1961   1.399       .  A
C1960      H1965   1.082       .  S
C1961      C1962   1.404       .  A
C1961      H1966   1.083       .  S
C1962      C1963   1.408       .  A
C1963      C1964   1.397       .  A
C1963      H1967   1.083       .  S
C1964      H1968   1.083       .  S
