geometry optimzed in LAMMPS
_audit_creation_date              2020-12-01 
_audit_creation_method            'lammps2cif' 
_symmetry_space_group_name_H-M    'P1' 
_symmetry_Int_Tables_number       1 
_symmetry_cell_setting            triclinic 
loop_ 
_symmetry_equiv_pos_as_xyz 
  x,y,z 
_cell_length_a                    53.76745334 
_cell_length_b                    53.789641753280996 
_cell_length_c                    53.75402974062566 
_cell_angle_alpha                 90.00109478136032 
_cell_angle_beta                  90.08615482793263 
_cell_angle_gamma                 90.00063283551364 
loop_ 
_atom_site_label 
_atom_site_type_symbol 
_atom_site_fract_x 
_atom_site_fract_y 
_atom_site_fract_z 
_atom_site_charge 
N1          N  0.99676607  0.21825152  0.54020865    -0.36000
N2          N  0.03619242  0.22456562  0.50294479    -0.56600
N3          N  0.99856700  0.22631338  0.46413083    -0.36000
N4          N  0.95944060  0.21960643  0.50103811    -0.56600
C5          C  0.01664734  0.22622981  0.55344153     0.27600
C6          C  0.97625945  0.22698055  0.55194961     0.27600
C7          C  0.01930413  0.22732450  0.44985768     0.27600
C8          C  0.97892920  0.22295074  0.44869571     0.27600
C9          C  0.05001055  0.22696822  0.52382602     0.36200
C10         C  0.05054098  0.23248057  0.48386551     0.36200
C11         C  0.94431049  0.21639068  0.52081445     0.36200
C12         C  0.94517966  0.21729585  0.48050252     0.36200
C13         C  0.00875467  0.24176129  0.57244118    -0.21300
C14         C  0.98317725  0.24141688  0.57211702    -0.21300
C15         C  0.01269188  0.22506061  0.42502082    -0.21300
C16         C  0.98727494  0.22241514  0.42427804    -0.21300
C17         C  0.07263978  0.23797857  0.51807975    -0.22400
C18         C  0.07327765  0.24069805  0.49271292    -0.22400
C19         C  0.92032013  0.21136553  0.51286191    -0.22400
C20         C  0.92081144  0.21219607  0.48728875    -0.22400
C21         C  0.04171711  0.22040952  0.54802242    -0.17700
C22         C  0.95145018  0.22121706  0.54562813    -0.17700
C23         C  0.95362579  0.22025807  0.45573283    -0.17700
C24         C  0.04396493  0.23118498  0.45842977    -0.17700
H25         H  0.02027344  0.25196985  0.58543399     0.15200
H26         H  0.97102638  0.25106162  0.58493042     0.15200
H27         H  0.02487835  0.22544829  0.40901649     0.15200
H28         H  0.97622936  0.22010813  0.40758603     0.15200
H29         H  0.08714237  0.24375055  0.53079707     0.13500
H30         H  0.08855278  0.24830132  0.48206129     0.13500
H31         H  0.90399926  0.20845265  0.52425394     0.13500
H32         H  0.90497882  0.20958090  0.47510950     0.13500
H33         H  0.99721965  0.20556485  0.52551765     0.26700
H34         H  0.99771976  0.22936056  0.48312187     0.26700
O35         O  0.23555124  0.21472491  0.27887359    -0.87800
C36         C  0.23675694  0.28868672  0.29657258     0.88300
Mg37       Mg  0.26892707  0.19397368  0.27081502     1.58100
O38         O  0.21532603  0.27415746  0.23629624    -0.87500
O39         O  0.19924135  0.22354275  0.26287033    -0.74800
C40         C  0.33151204  0.26248442  0.18971837     0.93300
O41         O  0.27793859  0.24415676  0.30895940    -0.74600
O42         O  0.33532675  0.24721814  0.20740133    -0.82100
Mg43       Mg  0.23605097  0.23613114  0.31272177     1.58000
C44         C  0.24348032  0.31648963  0.17600015     0.93200
O45         O  0.19495455  0.22894446  0.32296365    -0.80400
H46         H  0.19207354  0.25638329  0.21331430    -0.05700
C47         C  0.28865635  0.29505887  0.24157850     0.88200
O48         O  0.26306586  0.19852645  0.22881033    -0.74900
O49         O  0.22687768  0.26867532  0.29109634    -0.87700
O50         O  0.23067209  0.31842364  0.19591050    -0.80500
C51         C  0.18297585  0.32645363  0.26155683     0.93400
C52         C  0.17461358  0.24104979  0.32159757     0.93200
Mg53       Mg  0.26968454  0.26628686  0.19704178     1.58000
O54         O  0.31082474  0.27386218  0.18737615    -0.80400
O55         O  0.22781821  0.25766895  0.20120454    -0.74700
O56         O  0.18187614  0.30647999  0.27428840    -0.80500
O57         O  0.24491395  0.20132286  0.33479666    -0.82200
O58         O  0.32448159  0.19710660  0.23623596    -0.80500
C59         C  0.21083418  0.26270247  0.21686172     0.87600
O60         O  0.27916409  0.23446629  0.21896043    -0.87700
O61         O  0.26967365  0.28847731  0.23038022    -0.87800
O62         O  0.30537408  0.27956522  0.24785194    -0.74800
Mg63       Mg  0.19347394  0.26552753  0.26912778     1.58000
O64         O  0.20004155  0.33001451  0.24554351    -0.82200
H65         H  0.21375812  0.18868854  0.26368574    -0.05900
O66         O  0.29000553  0.22818147  0.27354485    -0.87500
H67         H  0.31370686  0.24478012  0.29693426    -0.05800
H68         H  0.26492113  0.21150313  0.19342543    -0.05900
C69         C  0.29479531  0.23900700  0.29325009     0.87600
C70         C  0.21616556  0.20805618  0.26849889     0.88200
C71         C  0.26922493  0.21471380  0.21281376     0.88300
H72         H  0.29081703  0.31438444  0.24667280    -0.05900
O73         O  0.24193681  0.30482733  0.28009561    -0.74900
Mg74       Mg  0.31213634  0.23771726  0.24149970     1.58000
H75         H  0.24152883  0.29235902  0.31576907    -0.05900
C76         C  0.26045620  0.18382760  0.33143145     0.93200
O77         O  0.30396942  0.17209306  0.26205127    -0.82200
C78         C  0.32184075  0.17621489  0.24709194     0.93300
O79         O  0.17076182  0.25669095  0.30419568    -0.82100
Mg80       Mg  0.23579343  0.30866102  0.23773755     1.58200
O81         O  0.27382050  0.18258294  0.31189051    -0.80500
O82         O  0.25996916  0.29975822  0.17348464    -0.82200
O83         O  0.75780513  0.24895539  0.70240192    -0.87800
C84         C  0.74259821  0.19501430  0.75433446     0.88300
Mg85       Mg  0.78562741  0.27737821  0.70815934     1.58100
O86         O  0.69742289  0.24222923  0.75034082    -0.87500
O87         O  0.71793156  0.24547636  0.69465336    -0.74800
C88         C  0.76410053  0.32075536  0.82155534     0.93300
O89         O  0.79562208  0.22281122  0.74106389    -0.74600
O90         O  0.78161368  0.31669305  0.80624116    -0.82100
Mg91       Mg  0.76932569  0.21095513  0.70962838     1.58000
C92         C  0.67058465  0.27319479  0.81736487     0.93200
O93         O  0.74665995  0.19396569  0.67712778    -0.80400
H94         H  0.67243826  0.26201182  0.73112889    -0.05700
C95         C  0.74922168  0.24989364  0.80562346     0.88200
O96         O  0.75611224  0.30530144  0.72174100    -0.74900
O97         O  0.73875789  0.20729808  0.73528748    -0.87700
O98         O  0.67153453  0.25284607  0.80521087    -0.80500
C99         C  0.67031914  0.18317955  0.76405054     0.93400
C100        C  0.72573511  0.18307418  0.67455567     0.93200
Mg101      Mg  0.71927367  0.29402635  0.78745561     1.58000
O102        O  0.74283287  0.31043121  0.81956959    -0.80400
O103        O  0.69248552  0.28224491  0.75597769    -0.74700
O104        O  0.68234655  0.18455101  0.74362271    -0.80500
O105        O  0.80217451  0.21431528  0.68330072    -0.82200
O106        O  0.80716968  0.31996273  0.75331066    -0.80500
C107        C  0.68671441  0.26194089  0.74531453     0.87600
O108        O  0.74963129  0.29790961  0.76122310    -0.87700
O109        O  0.73056293  0.25624468  0.79377151    -0.87800
O110        O  0.77059187  0.25878232  0.80088255    -0.74800
Mg111      Mg  0.70234493  0.21529337  0.72079459     1.58000
O112        O  0.67328329  0.19883526  0.78152193    -0.82200
H113        H  0.74093623  0.26864573  0.67572402    -0.05900
O114        O  0.79106581  0.26298161  0.74533604    -0.87500
H115        H  0.81603905  0.24367612  0.76498845    -0.05800
H116        H  0.73261072  0.32561192  0.74317693    -0.05900
C117        C  0.80173855  0.24340012  0.75083008     0.87600
C118        C  0.73919431  0.25479346  0.69019035     0.88200
C119        C  0.74568761  0.31036870  0.74232007     0.88300
H120        H  0.74742490  0.23589124  0.81993729    -0.05900
O121        O  0.73213089  0.20031300  0.77483657    -0.74900
Mg122      Mg  0.78633680  0.28913468  0.77509905     1.58000
H123        H  0.75565948  0.17974877  0.75367892    -0.05900
C124        C  0.81799078  0.23147058  0.67937007     0.93200
O125        O  0.81537593  0.30745091  0.71459299    -0.82200
C126        C  0.81895958  0.32216816  0.73285222     0.93300
O127        O  0.70777942  0.18680591  0.68957167    -0.82100
Mg128      Mg  0.70249476  0.22841077  0.78769460     1.58200
O129        O  0.81546200  0.25290333  0.68926020    -0.80500
O130        O  0.68728227  0.28986052  0.81522946    -0.82200
N131        N  0.49955826  0.03711380  0.24665576    -0.36000
N132        N  0.53922610  0.00084129  0.25295677    -0.56600
N133        N  0.50201690  0.96181920  0.25939504    -0.36000
N134        N  0.46241587  0.99820400  0.25583741    -0.56600
C135        C  0.51934561  0.05262618  0.24862894     0.27600
C136        C  0.47873107  0.05106799  0.24882237     0.27600
C137        C  0.52306005  0.94903527  0.26457664     0.27600
C138        C  0.48260403  0.94802372  0.26761902     0.27600
C139        C  0.55317553  0.02082937  0.24676777     0.36200
C140        C  0.55435763  0.98080238  0.25155859     0.36200
C141        C  0.44705611  0.01691335  0.24902621     0.36200
C142        C  0.44838063  0.97732800  0.25668467     0.36200
C143        C  0.51094569  0.07681131  0.25160653    -0.21300
C144        C  0.48535453  0.07584647  0.25166328    -0.21300
C145        C  0.51693936  0.92673301  0.27599436    -0.21300
C146        C  0.49146785  0.92621343  0.27813081    -0.21300
C147        C  0.57739849  0.01349949  0.24187517    -0.22400
C148        C  0.57812130  0.98814533  0.24481114    -0.22400
C149        C  0.42307784  0.00795351  0.24588914    -0.22400
C150        C  0.42393910  0.98287826  0.25061334    -0.22400
C151        C  0.54474886  0.04577259  0.24660722    -0.17700
C152        C  0.45389214  0.04227376  0.24731298    -0.17700
C153        C  0.45705351  0.95354578  0.26403376    -0.17700
C154        C  0.54751326  0.95619154  0.25790587    -0.17700
H155        H  0.52209234  0.09347566  0.25337804     0.15200
H156        H  0.47303669  0.09165023  0.25354163     0.15200
H157        H  0.52947100  0.91217508  0.28199676     0.15200
H158        H  0.48065985  0.91117275  0.28598867     0.15200
H159        H  0.59296397  0.02520262  0.23680024     0.13500
H160        H  0.59439008  0.97650553  0.24261473     0.13500
H161        H  0.40662175  0.01842965  0.24090244     0.13500
H162        H  0.40828933  0.97024355  0.24988194     0.13500
H163        H  0.50008373  0.01852788  0.24161189     0.26700
H164        H  0.50092493  0.97738634  0.24807235     0.26700
O165        O  0.77808577  0.71492660  0.26527847    -0.87800
C166        C  0.79650000  0.78874655  0.26291758     0.88300
Mg167      Mg  0.76962796  0.69339907  0.23241985     1.58100
O168        O  0.73590775  0.77575656  0.28415851    -0.87500
O169        O  0.76124633  0.72486079  0.30090195    -0.74800
C170        C  0.68743981  0.76034454  0.16931794     0.93300
O171        O  0.80715963  0.74363160  0.22228767    -0.74600
O172        O  0.70457111  0.74431979  0.16621175    -0.82100
Mg173      Mg  0.81185888  0.73645863  0.26438330     1.58000
C174        C  0.67692206  0.81878835  0.25537297     0.93200
O175        O  0.82232333  0.73022069  0.30586891    -0.80400
H176        H  0.71266569  0.75997163  0.30847984    -0.05700
C177        C  0.74092230  0.79390748  0.21018306     0.88200
O178        O  0.72764761  0.69830803  0.23905032    -0.74900
O179        O  0.79059848  0.76911575  0.27327308    -0.87700
O180        O  0.69699614  0.82054763  0.26793241    -0.80500
C181        C  0.76184854  0.82798188  0.31619450     0.93400
C182        C  0.81931162  0.74117725  0.32672440     0.93200
Mg183      Mg  0.69612533  0.76691264  0.23072263     1.58000
O184        O  0.68605777  0.77320613  0.18922173    -0.80400
O185        O  0.70020291  0.75983839  0.27280302    -0.74700
O186        O  0.77392993  0.80765706  0.31802229    -0.80500
O187        O  0.83397238  0.70183299  0.25548828    -0.82200
O188        O  0.73314030  0.69403983  0.17818555    -0.80500
C189        C  0.71617292  0.76523154  0.28939351     0.87600
O190        O  0.71744003  0.73399518  0.22241398    -0.87700
O191        O  0.73004148  0.78839557  0.22966118    -0.87800
O192        O  0.74625912  0.77759388  0.19391120    -0.74800
Mg193      Mg  0.76808596  0.76670541  0.30639968     1.58000
O194        O  0.74655500  0.83163794  0.29842714    -0.82200
H195        H  0.76211823  0.68965143  0.28733823    -0.05900
O196        O  0.77182199  0.72692308  0.21061290    -0.87500
H197        H  0.79476709  0.74357882  0.18658066    -0.05800
H198        H  0.69232785  0.71163569  0.23824429    -0.05900
C199        C  0.79133696  0.73800592  0.20559333     0.87600
C200        C  0.76723024  0.70889289  0.28458204     0.88200
C201        C  0.71155434  0.71457762  0.23317692     0.88300
H202        H  0.74641170  0.81299537  0.20709805    -0.05900
O203        O  0.78036063  0.80494350  0.25698181    -0.74900
Mg204      Mg  0.73921199  0.73549227  0.18888370     1.58000
H205        H  0.81578615  0.79193293  0.25822952    -0.05900
C206        C  0.83055446  0.68459926  0.23965602     0.93200
O207        O  0.76045338  0.67012912  0.19790407    -0.82200
C208        C  0.74463113  0.67339618  0.18053379     0.93300
O209        O  0.80186762  0.75684903  0.32996568    -0.82100
Mg210      Mg  0.73823500  0.80963551  0.26296602     1.58200
O211        O  0.81073207  0.68311471  0.22669667    -0.80500
O212        O  0.67356769  0.80154473  0.23951505    -0.82200
N213        N  0.96384283  0.73507052  0.50381893    -0.36000
N214        N  0.00488004  0.73867805  0.53909918    -0.56600
N215        N  0.03994285  0.73109095  0.49836732    -0.36000
N216        N  0.99908516  0.72991829  0.46278827    -0.56600
C217        C  0.95174649  0.74364018  0.52420442     0.27600
C218        C  0.94844781  0.73814191  0.48409477     0.27600
C219        C  0.05577494  0.73663450  0.51720690     0.27600
C220        C  0.05279304  0.73327407  0.47679962     0.27600
C221        C  0.98565184  0.73783450  0.55529189     0.36200
C222        C  0.02575418  0.73446087  0.55252403     0.36200
C223        C  0.97770927  0.72609630  0.45001832     0.36200
C224        C  0.01802800  0.72504017  0.44694026     0.36200
C225        C  0.92832871  0.75200536  0.51736339    -0.21300
C226        C  0.92616916  0.74836474  0.49215150    -0.21300
C227        C  0.07902029  0.74211655  0.50753047    -0.21300
C228        C  0.07714532  0.74004078  0.48209876    -0.21300
C229        C  0.99434599  0.73331670  0.57913431    -0.22400
C230        C  0.01973191  0.73106222  0.57737410    -0.22400
C231        C  0.98311264  0.71893849  0.42583919    -0.22400
C232        C  0.00862773  0.71825994  0.42390097    -0.22400
C233        C  0.96051255  0.74257653  0.54907919    -0.17700
C234        C  0.95349023  0.73115752  0.45915387    -0.17700
C235        C  0.04365432  0.72814107  0.45251598    -0.17700
C236        C  0.05030190  0.73536699  0.54299115    -0.17700
H237        H  0.91409175  0.75964155  0.52935396     0.15200
H238        H  0.90994232  0.75276227  0.48106594     0.15200
H239        H  0.09570052  0.74691489  0.51775445     0.15200
H240        H  0.09214614  0.74297173  0.46901714     0.15200
H241        H  0.98353625  0.73194205  0.59604829     0.13500
H242        H  0.03233988  0.72766083  0.59271501     0.13500
H243        H  0.97004721  0.71511342  0.41098583     0.13500
H244        H  0.01906578  0.71369104  0.40731794     0.13500
H245        H  0.98044396  0.72522644  0.50374842     0.26700
H246        H  0.02229278  0.72358198  0.50035900     0.26700
O247        O  0.20265331  0.74757291  0.74050859    -0.87800
C248        C  0.25666740  0.69513606  0.75286922     0.88300
Mg249      Mg  0.20771339  0.77810834  0.71489197     1.58100
O250        O  0.24949025  0.73867133  0.80131257    -0.87500
O251        O  0.19421568  0.74063916  0.77975920    -0.74800
C252        C  0.31890610  0.82432515  0.74186048     0.93300
O253        O  0.24234790  0.72599461  0.70147040    -0.74600
O254        O  0.30510130  0.82090477  0.72291523    -0.82100
Mg255      Mg  0.21107488  0.71098727  0.72642018     1.58000
C256        C  0.31411152  0.77224170  0.83101850     0.93200
O257        O  0.17902076  0.69148576  0.74764255    -0.80400
H258        H  0.22847021  0.75565885  0.82682031    -0.05700
C259        C  0.30543544  0.75285600  0.75180918     0.88200
O260        O  0.21875062  0.80442152  0.74660312    -0.74900
O261        O  0.23680459  0.70589974  0.75710842    -0.87700
O262        O  0.30377687  0.75096406  0.82882820    -0.80500
C263        C  0.26576936  0.67869913  0.82511903     0.93400
C264        C  0.17642159  0.67903406  0.76767768     0.93200
Mg265      Mg  0.28343345  0.79406545  0.78364543     1.58000
O266        O  0.31468414  0.81382159  0.76264596    -0.80400
O267        O  0.25219008  0.77864956  0.80856846    -0.74700
O268        O  0.24561252  0.67989781  0.81251356    -0.80500
O269        O  0.18431744  0.71638683  0.69375784    -0.82200
O270        O  0.25143045  0.82326729  0.69673798    -0.80500
C271        C  0.24292622  0.75735927  0.81296668     0.87600
O272        O  0.25851610  0.79863801  0.75283317    -0.87700
O273        O  0.29252942  0.75738560  0.77025569    -0.87800
O274        O  0.30097413  0.76270576  0.73080926    -0.74800
Mg275      Mg  0.22151669  0.71065631  0.79381805     1.58000
O276        O  0.28255591  0.69532295  0.82347241    -0.82200
H277        H  0.17475044  0.76470520  0.75809401    -0.05900
O278        O  0.24560088  0.76576489  0.70943629    -0.87500
H279        H  0.26606871  0.74903848  0.68332319    -0.05800
H280        H  0.23913408  0.82436900  0.77133603    -0.05900
C281        C  0.25175746  0.74724528  0.69731614     0.87600
C282        C  0.18980735  0.75142638  0.75917067     0.88200
C283        C  0.23905006  0.80996035  0.75731208     0.88300
H284        H  0.32042593  0.73955269  0.75340702    -0.05900
O285        O  0.27657632  0.70075938  0.76436827    -0.74900
Mg286      Mg  0.27425775  0.79267451  0.71618111     1.58000
H287        H  0.25723241  0.68091090  0.73867284    -0.05900
C288        C  0.18154955  0.73437401  0.67856700     0.93200
O289        O  0.21293991  0.81076403  0.68827109    -0.82200
C290        C  0.23068676  0.82621998  0.68556563     0.93300
O291        O  0.19151024  0.68118243  0.78588986    -0.82100
Mg292      Mg  0.28763004  0.72734841  0.79624014     1.58200
O293        O  0.19188402  0.75542540  0.68207386    -0.80500
O294        O  0.31029323  0.78974227  0.81562035    -0.82200
N295        N  0.50127735  0.96237216  0.74721310    -0.36000
N296        N  0.45949097  0.99702811  0.74703630    -0.56600
N297        N  0.49396911  0.03777118  0.75717090    -0.36000
N298        N  0.53592864  0.00327835  0.75429442    -0.56600
C299        C  0.48285756  0.94719472  0.73921201     0.27600
C300        C  0.52307546  0.95040072  0.74339217     0.27600
C301        C  0.47265262  0.05074132  0.75366548     0.27600
C302        C  0.51303602  0.05423223  0.75676250     0.27600
C303        C  0.44675132  0.97534598  0.74704183     0.36200
C304        C  0.44279210  0.01512117  0.75218097     0.36200
C305        C  0.55219651  0.98417970  0.75635819     0.36200
C306        C  0.54848200  0.02415366  0.76058095     0.36200
C307        C  0.49307132  0.92529947  0.73021854    -0.21300
C308        C  0.51844447  0.92728353  0.73294590    -0.21300
C309        C  0.47819755  0.07582949  0.75154614    -0.21300
C310        C  0.50362941  0.07803017  0.75348461    -0.21300
C311        C  0.42178995  0.97978693  0.75179961    -0.22400
C312        C  0.41927516  0.00497038  0.75491458    -0.22400
C313        C  0.57529821  0.99301568  0.76362299    -0.22400
C314        C  0.57300090  0.01832200  0.76612074    -0.22400
C315        C  0.45703432  0.95166305  0.74178021    -0.17700
C316        C  0.54689664  0.95901811  0.75062982    -0.17700
C317        C  0.53861051  0.04859846  0.76020170    -0.17700
C318        C  0.44820624  0.04081203  0.75370066    -0.17700
H319        H  0.48321920  0.90931915  0.72294715     0.15200
H320        H  0.53193543  0.91316447  0.72808904     0.15200
H321        H  0.46524753  0.09103228  0.74901281     0.15200
H322        H  0.51397994  0.09527024  0.75273163     0.15200
H323        H  0.40688138  0.96631387  0.75288237     0.13500
H324        H  0.40209754  0.01467974  0.75886830     0.13500
H325        H  0.59215656  0.98239529  0.76649695     0.13500
H326        H  0.58774891  0.03097522  0.77138509     0.13500
H327        H  0.49892373  0.97833883  0.75767391     0.26700
H328        H  0.49517694  0.01923502  0.76204315     0.26700
N329        N  0.25080061  0.53568551  0.00023144    -0.36000
N330        N  0.24981376  0.49760711  0.03870354    -0.56600
N331        N  0.24453002  0.45948025  0.00012309    -0.36000
N332        N  0.24802105  0.49710841  0.96153313    -0.56600
C333        C  0.25650307  0.54970060  0.02044126     0.27600
C334        C  0.25599361  0.54943368  0.97976528     0.27600
C335        C  0.24822494  0.44499079  0.02037729     0.27600
C336        C  0.24678737  0.44472919  0.97982776     0.27600
C337        C  0.24924533  0.51789010  0.05360152     0.36200
C338        C  0.24576444  0.47765645  0.05347733     0.36200
C339        C  0.24711690  0.51750455  0.94681645     0.36200
C340        C  0.24290427  0.47726330  0.94686167     0.36200
C341        C  0.26480372  0.57283295  0.01267611    -0.21300
C342        C  0.26454563  0.57265052  0.98711192    -0.21300
C343        C  0.25265701  0.42072611  0.01285453    -0.21300
C344        C  0.25166477  0.42054011  0.98735722    -0.21300
C345        C  0.24515797  0.51073985  0.07802323    -0.22400
C346        C  0.24291709  0.48527553  0.07794110    -0.22400
C347        C  0.24174254  0.51052942  0.92255761    -0.22400
C348        C  0.23903172  0.48507515  0.92259784    -0.22400
C349        C  0.25384309  0.54262840  0.04576239    -0.17700
C350        C  0.25244714  0.54217630  0.95458392    -0.17700
C351        C  0.24317544  0.45207581  0.95475567    -0.17700
C352        C  0.24611917  0.45254201  0.04553419    -0.17700
H353        H  0.27053770  0.58829960  0.02421565     0.15200
H354        H  0.27002032  0.58798324  0.97528671     0.15200
H355        H  0.25589680  0.40464314  0.02451072     0.15200
H356        H  0.25400271  0.40426252  0.97577725     0.15200
H357        H  0.24415977  0.52260615  0.09425216     0.13500
H358        H  0.23990121  0.47367044  0.09410769     0.13500
H359        H  0.24015323  0.52251480  0.90645797     0.13500
H360        H  0.23503846  0.47360681  0.90653480     0.13500
H361        H  0.24176089  0.51868553  0.00036196     0.26700
H362        H  0.23790189  0.47756665  0.00028949     0.26700
N363        N  0.77171383  0.46172892  0.99692442    -0.36000
N364        N  0.76206770  0.49665643  0.03725598    -0.56600
N365        N  0.75749231  0.53680465  0.00082889    -0.36000
N366        N  0.76451919  0.50164882  0.96040583    -0.56600
C367        C  0.76973725  0.44579794  0.01634191     0.27600
C368        C  0.76930751  0.44816819  0.97583027     0.27600
C369        C  0.74964525  0.54878984  0.02155784     0.27600
C370        C  0.75299917  0.55185247  0.98110044     0.27600
C371        C  0.76900895  0.47672335  0.05098593     0.36200
C372        C  0.76038145  0.51613837  0.05309885     0.36200
C373        C  0.77037204  0.48285796  0.94473405     0.36200
C374        C  0.76560109  0.52291385  0.94697237     0.36200
C375        C  0.76676406  0.42177728  0.00747280    -0.21300
C376        C  0.76648789  0.42325623  0.98199174    -0.21300
C377        C  0.74004720  0.57179197  0.01485659    -0.21300
C378        C  0.74229187  0.57376877  0.98940517    -0.21300
C379        C  0.77151013  0.48350255  0.07572594    -0.22400
C380        C  0.76602607  0.50843948  0.07707572    -0.22400
C381        C  0.77466463  0.49215750  0.92108684    -0.22400
C382        C  0.77186802  0.51752655  0.92254679    -0.22400
C383        C  0.77109263  0.45208778  0.04189828    -0.17700
C384        C  0.77055067  0.45729628  0.95109552    -0.17700
C385        C  0.75970058  0.54698859  0.95602541    -0.17700
C386        C  0.75281342  0.54054956  0.04649705    -0.17700
H387        H  0.76489878  0.40486698  0.01822307     0.15200
H388        H  0.76451698  0.40762714  0.96946648     0.15200
H389        H  0.73271681  0.58598545  0.02708922     0.15200
H390        H  0.73688045  0.58967729  0.97832618     0.15200
H391        H  0.77641703  0.47163084  0.09123496     0.13500
H392        H  0.76600416  0.51957387  0.09384644     0.13500
H393        H  0.77931426  0.48175617  0.90449835     0.13500
H394        H  0.77378458  0.53046615  0.90724876     0.13500
H395        H  0.77668054  0.48031503  0.99799592     0.26700
H396        H  0.76813506  0.52077174  0.00046536     0.26700
O397        O  0.79474967  0.73716475  0.74741707    -0.87800
C398        C  0.74531660  0.74464149  0.69059587     0.88300
Mg399      Mg  0.78766794  0.71300689  0.77856483     1.58100
O400        O  0.74719885  0.79482837  0.73257414    -0.87500
O401        O  0.80301248  0.77627157  0.74017515    -0.74800
C402        C  0.67227490  0.73861299  0.81621087     0.93300
O403        O  0.75785477  0.69614380  0.72524015    -0.74600
O404        O  0.68746019  0.72041479  0.81516994    -0.82100
Mg405      Mg  0.78976320  0.72097161  0.71095489     1.58000
C406        C  0.67975824  0.82528873  0.75786973     0.93200
O407        O  0.82228853  0.74223951  0.69197678    -0.80400
H408        H  0.76582908  0.82201587  0.74978984    -0.05700
C409        C  0.69108425  0.74460651  0.74508881     0.88200
O410        O  0.77374271  0.74558539  0.80244546    -0.74900
O411        O  0.76420838  0.75046800  0.70236380    -0.87700
O412        O  0.69173224  0.82129309  0.73780656    -0.80500
C413        C  0.73609184  0.81600030  0.67092098     0.93400
C414        C  0.82607049  0.76252931  0.68017634     0.93200
Mg415      Mg  0.70854455  0.77967641  0.78563653     1.58000
O416        O  0.67586746  0.75860655  0.80394150    -0.80400
O417        O  0.74046227  0.80451995  0.77156451    -0.74700
O418        O  0.75662476  0.80448349  0.67391899    -0.80500
O419        O  0.81665722  0.68941966  0.72001123    -0.82200
O420        O  0.74195486  0.69537626  0.82312348    -0.80500
C421        C  0.75162572  0.80784295  0.75100781     0.87600
O422        O  0.73408947  0.75008157  0.79432579    -0.87700
O423        O  0.70328485  0.76361449  0.74925804    -0.87800
O424        O  0.69518051  0.72449563  0.75677251    -0.74800
Mg425      Mg  0.77793358  0.78790667  0.70755720     1.58000
O426        O  0.71785673  0.81327987  0.68570844    -0.82200
H427        H  0.82104842  0.75562912  0.76615226    -0.05900
O428        O  0.75091475  0.70570466  0.76425955    -0.87500
H429        H  0.73234546  0.67860863  0.74682473    -0.05800
H430        H  0.75160941  0.77068585  0.81985228    -0.05900
C431        C  0.74656059  0.69278031  0.74573385     0.87600
C432        C  0.80703211  0.75608329  0.75171712     0.88200
C433        C  0.75284776  0.75589115  0.80629639     0.88300
H434        H  0.67702802  0.74492229  0.73068741    -0.05900
O435        O  0.72447749  0.75505830  0.69450745    -0.74900
Mg436      Mg  0.72032360  0.71263386  0.78940038     1.58000
H437        H  0.74639069  0.72973326  0.67714947    -0.05900
C438        C  0.81801785  0.67541130  0.73907087     0.93200
O439        O  0.78080911  0.68728489  0.81115486    -0.82200
C440        C  0.76278844  0.68428536  0.82614515     0.93300
O441        O  0.81095050  0.78070690  0.68181308    -0.82100
Mg442      Mg  0.71040703  0.78778460  0.71816936     1.58200
O443        O  0.80573109  0.67986278  0.75881093    -0.80500
O444        O  0.68162394  0.81112542  0.77673537    -0.82200
N445        N  0.74658413  0.96295685  0.49912596    -0.36000
N446        N  0.74095552  0.00037505  0.53828908    -0.56600
N447        N  0.74210969  0.03886832  0.50071108    -0.36000
N448        N  0.75020218  0.00169220  0.46183976    -0.56600
C449        C  0.74982069  0.94883211  0.51969369     0.27600
C450        C  0.75493167  0.94961353  0.47945555     0.27600
C451        C  0.74324613  0.05308870  0.52147331     0.27600
C452        C  0.74753353  0.05368959  0.48114359     0.27600
C453        C  0.73678559  0.97967722  0.55191432     0.36200
C454        C  0.73485216  0.01997139  0.55284398     0.36200
C455        C  0.74939271  0.98171459  0.44660124     0.36200
C456        C  0.74631033  0.02183672  0.44734542     0.36200
C457        C  0.76016608  0.92617252  0.51299030    -0.21300
C458        C  0.76341448  0.92668429  0.48760562    -0.21300
C459        C  0.74928456  0.07729814  0.51492672    -0.21300
C460        C  0.75199769  0.07766617  0.48950331    -0.21300
C461        C  0.72830815  0.98616081  0.57538497    -0.22400
C462        C  0.72718657  0.01169422  0.57600388    -0.22400
C463        C  0.74543503  0.98922511  0.42225521    -0.22400
C464        C  0.74345508  0.01466780  0.42272768    -0.22400
C465        C  0.74218283  0.95512125  0.54410632    -0.17700
C466        C  0.75354450  0.95690553  0.45418222    -0.17700
C467        C  0.74648368  0.04671864  0.45578748    -0.17700
C468        C  0.73736357  0.04525498  0.54594433    -0.17700
H469        H  0.76467822  0.91074347  0.52511001     0.15200
H470        H  0.77087904  0.91174467  0.47638052     0.15200
H471        H  0.75112335  0.09320485  0.52711774     0.15200
H472        H  0.75631796  0.09387380  0.47838336     0.15200
H473        H  0.72377998  0.97380242  0.59060987     0.13500
H474        H  0.72154079  0.02287674  0.59175278     0.13500
H475        H  0.74422579  0.97760507  0.40585720     0.13500
H476        H  0.74043913  0.02653906  0.40674613     0.13500
H477        H  0.73644672  0.97935208  0.49824912     0.26700
H478        H  0.73498675  0.02100236  0.49953158     0.26700
O479        O  0.73638506  0.28560305  0.22322200    -0.87800
C480        C  0.74013624  0.21116424  0.20586895     0.88300
Mg481      Mg  0.76852185  0.30739594  0.23328165     1.58100
O482        O  0.71487947  0.22424880  0.26489036    -0.87500
O483        O  0.70006292  0.27486860  0.23812822    -0.74800
C484        C  0.82682102  0.23857758  0.31768580     0.93300
O485        O  0.78116326  0.25656383  0.19672175    -0.74600
O486        O  0.83137424  0.25509866  0.30136666    -0.82100
Mg487      Mg  0.73946887  0.26355203  0.18990947     1.58000
C488        C  0.74075019  0.18263714  0.32585891     0.93200
O489        O  0.69867860  0.27010939  0.17760690    -0.80400
H490        H  0.68910772  0.24038213  0.28625963    -0.05700
C491        C  0.78870846  0.20676618  0.26331456     0.88200
O492        O  0.75974918  0.30264913  0.27490969    -0.74900
O493        O  0.72968853  0.23091116  0.21118979    -0.87700
O494        O  0.72925334  0.18024572  0.30523105    -0.80500
C495        C  0.68516415  0.17168052  0.23827076     0.93400
C496        C  0.67801040  0.25852888  0.17880566     0.93200
Mg497      Mg  0.76575948  0.23420907  0.30687348     1.58000
O498        O  0.80606143  0.22727465  0.31844459    -0.80400
O499        O  0.72401496  0.24131390  0.30068865    -0.74700
O500        O  0.68415974  0.19158066  0.22532502    -0.80500
O501        O  0.74998443  0.29766574  0.16727373    -0.82200
O502        O  0.82030582  0.30635093  0.27304812    -0.80500
C503        C  0.70840911  0.23522875  0.28400493     0.87600
O504        O  0.77539201  0.26673401  0.28578492    -0.87700
O505        O  0.76883376  0.21226361  0.27347457    -0.87800
O506        O  0.80514579  0.22305949  0.25847601    -0.74800
Mg507      Mg  0.69512245  0.23290107  0.23118050     1.58000
O508        O  0.70208112  0.16811394  0.25445417    -0.82200
H509        H  0.71309106  0.31029120  0.23834451    -0.05900
O510        O  0.79045235  0.27393002  0.23240619    -0.87500
H511        H  0.81608163  0.25749653  0.21110236    -0.05800
H512        H  0.75875931  0.28927169  0.31021505    -0.05900
C513        C  0.79681017  0.26276738  0.21334258     0.87600
C514        C  0.71644397  0.29115850  0.23318192     0.88200
C515        C  0.76465308  0.28628778  0.29122765     0.88300
H516        H  0.79195719  0.18768628  0.25789303    -0.05900
O517        O  0.74478992  0.19483394  0.22230145    -0.74900
Mg518      Mg  0.81013393  0.26499343  0.26602790     1.58000
H519        H  0.74588681  0.20791729  0.18688119    -0.05900
C520        C  0.76555572  0.31507376  0.17113602     0.93200
O521        O  0.80245170  0.33037858  0.24447038    -0.82200
C522        C  0.81873373  0.32698630  0.26139977     0.93300
O523        O  0.67418213  0.24221274  0.19553824    -0.82100
Mg524      Mg  0.73651632  0.19055096  0.26412376     1.58200
O525        O  0.77623859  0.31775553  0.19219682    -0.80500
O526        O  0.75608675  0.20021761  0.32952686    -0.82200
N527        N  0.00242472  0.53888351  0.24783789    -0.36000
N528        N  0.96326094  0.50147535  0.25352655    -0.56600
N529        N  0.00084814  0.46321749  0.25741442    -0.36000
N530        N  0.04021168  0.50126367  0.25453481    -0.56600
C531        C  0.98232032  0.55372601  0.25070788     0.27600
C532        C  0.02284809  0.55346536  0.25002438     0.27600
C533        C  0.98029508  0.44968848  0.26299220     0.27600
C534        C  0.02093840  0.44953255  0.26398803     0.27600
C535        C  0.94894361  0.52139706  0.24823016     0.36200
C536        C  0.94808906  0.48146327  0.25278513     0.36200
C537        C  0.05525367  0.52046612  0.24823528     0.36200
C538        C  0.05447108  0.48056438  0.25434097     0.36200
C539        C  0.99007005  0.57803403  0.25453802    -0.21300
C540        C  0.01562290  0.57786236  0.25410490    -0.21300
C541        C  0.98744464  0.42696480  0.27281181    -0.21300
C542        C  0.01305628  0.42686250  0.27345487    -0.21300
C543        C  0.92449827  0.51406366  0.24447475    -0.22400
C544        C  0.92396805  0.48875221  0.24731172    -0.22400
C545        C  0.07927831  0.51200156  0.24450242    -0.22400
C546        C  0.07881957  0.48676322  0.24846953    -0.22400
C547        C  0.95717034  0.54631520  0.24830972    -0.17700
C548        C  0.04779423  0.54569010  0.24684269    -0.17700
C549        C  0.04620228  0.45625013  0.26032302    -0.17700
C550        C  0.95528488  0.45690278  0.25864556    -0.17700
H551        H  0.97852426  0.59432265  0.25703825     0.15200
H552        H  0.02753045  0.59394532  0.25628789     0.15200
H553        H  0.97545780  0.41196672  0.27883553     0.15200
H554        H  0.02457555  0.41170875  0.28001030     0.15200
H555        H  0.90861249  0.52575334  0.24043469     0.13500
H556        H  0.90760735  0.47711004  0.24588796     0.13500
H557        H  0.09547965  0.52288921  0.23962050     0.13500
H558        H  0.09463915  0.47438830  0.24716569     0.13500
H559        H  0.00213719  0.52071488  0.24168095     0.26700
H560        H  0.00129700  0.47951507  0.24732216     0.26700
O561        O  0.23390015  0.70933016  0.23979001    -0.87800
C562        C  0.24435857  0.76292805  0.18701617     0.88300
Mg563      Mg  0.20758231  0.71362447  0.26988131     1.58100
O564        O  0.29167102  0.75865928  0.23212057    -0.87500
O565        O  0.27349981  0.70216015  0.23396053    -0.74800
C566        C  0.22845325  0.82657828  0.31817787     0.93300
O567        O  0.19372856  0.74675487  0.21770914    -0.74600
O568        O  0.21067776  0.81135716  0.31421384    -0.82100
Mg569      Mg  0.22010067  0.71625397  0.20285220     1.58000
C570        C  0.31949081  0.82458673  0.26520093     0.93200
O571        O  0.24348142  0.68502076  0.18358899    -0.80400
H572        H  0.31786448  0.73913569  0.24989326    -0.05700
C573        C  0.23960157  0.81306820  0.24539227     0.88200
O574        O  0.23856213  0.72652964  0.29640555    -0.74900
O575        O  0.24949579  0.74323728  0.19774418    -0.87700
O576        O  0.31655222  0.81443705  0.24390449    -0.80500
C577        C  0.31725963  0.77417173  0.17292798     0.93400
C578        C  0.26421195  0.68297130  0.17212622     0.93200
Mg579      Mg  0.27240919  0.79325439  0.28720916     1.58000
O580        O  0.24945350  0.82411244  0.30729018    -0.80400
O581        O  0.29858002  0.76279462  0.27209920    -0.74700
O582        O  0.30493869  0.75389962  0.17340998    -0.80500
O583        O  0.18896535  0.68774393  0.20839947    -0.82200
O584        O  0.18713733  0.75580617  0.31656997    -0.80500
C585        C  0.30343165  0.75307547  0.25109158     0.87600
O586        O  0.24275021  0.76675365  0.29161938    -0.87700
O587        O  0.25874781  0.80119947  0.25002311    -0.87800
O588        O  0.21889465  0.80767949  0.25543395    -0.74800
Mg589      Mg  0.28676187  0.72979923  0.20411686     1.58000
O590        O  0.31392327  0.79125405  0.18901958    -0.82200
H591        H  0.25193164  0.68206316  0.25751974    -0.05900
O592        O  0.20039580  0.75123116  0.25777072    -0.87500
H593        H  0.17431396  0.77058920  0.23962142    -0.05800
H594        H  0.26228730  0.74763392  0.31682641    -0.05900
C595        C  0.18876599  0.75665020  0.23863612     0.87600
C596        C  0.25283834  0.69709085  0.24419826     0.88200
C597        C  0.24824910  0.74722025  0.30241225     0.88300
H598        H  0.24035978  0.82801988  0.23197066    -0.05900
O599        O  0.25453113  0.78342453  0.19303929    -0.74900
Mg600      Mg  0.20538351  0.78018674  0.28547580     1.58000
H601        H  0.23041272  0.76281713  0.17250541    -0.05900
C602        C  0.17354245  0.68455320  0.22610371     0.93200
O603        O  0.18033303  0.71757077  0.30211082    -0.82200
C604        C  0.17675581  0.73447682  0.31831032     0.93300
O605        O  0.28163539  0.69883454  0.17491916    -0.82100
Mg606      Mg  0.28532784  0.79638826  0.22009478     1.58200
O607        O  0.17560977  0.69603969  0.24678366    -0.80500
O608        O  0.30440495  0.82089901  0.28306262    -0.82200
N609        N  0.26128711  0.03574876  0.50218312    -0.36000
N610        N  0.25013748  0.99830081  0.46428646    -0.56600
N611        N  0.24748798  0.96026699  0.50271929    -0.36000
N612        N  0.25609892  0.99826073  0.54070327    -0.56600
C613        C  0.25697001  0.05051289  0.48224672     0.27600
C614        C  0.26053828  0.05038601  0.52267440     0.27600
C615        C  0.23929451  0.94708708  0.48282343     0.27600
C616        C  0.24140553  0.94733611  0.52348456     0.27600
C617        C  0.25559665  0.01776964  0.44931741     0.36200
C618        C  0.24915974  0.97794915  0.44951430     0.36200
C619        C  0.26411694  0.01734519  0.55498572     0.36200
C620        C  0.25613905  0.97788512  0.55539495     0.36200
C621        C  0.25396402  0.07488630  0.49012869    -0.21300
C622        C  0.25617842  0.07479887  0.51561551    -0.21300
C623        C  0.22835439  0.92524257  0.49104179    -0.21300
C624        C  0.22963741  0.92541986  0.51665248    -0.21300
C625        C  0.25784665  0.00981895  0.42491400    -0.22400
C626        C  0.25391164  0.98459962  0.42504754    -0.22400
C627        C  0.26927391  0.00907241  0.57885157    -0.22400
C628        C  0.26418046  0.98408511  0.57913104    -0.22400
C629        C  0.25687655  0.04288672  0.45702352    -0.17700
C630        C  0.26449989  0.04253081  0.54752354    -0.17700
C631        C  0.24708100  0.95419943  0.54838483    -0.17700
C632        C  0.24223552  0.95376431  0.45741201    -0.17700
H633        H  0.25057420  0.09110977  0.47870416     0.15200
H634        H  0.25476021  0.09092287  0.52757859     0.15200
H635        H  0.22026611  0.91066429  0.47975315     0.15200
H636        H  0.22277767  0.91096144  0.52885053     0.02400
H637        H  0.26167474  0.02106013  0.40866350     0.13500
H638        H  0.25410434  0.97260865  0.40887980     0.13500
H639        H  0.27546076  0.02002039  0.59458325     0.13500
H640        H  0.26576264  0.97196255  0.59512842     0.13500
H641        H  0.26691941  0.01730788  0.50159503     0.26700
H642        H  0.25871472  0.97592382  0.50205098     0.26700
O643        O  0.26160442  0.25356638  0.79414916    -0.87800
C644        C  0.25038214  0.30854306  0.74228708     0.88300
Mg645      Mg  0.28952494  0.22479007  0.78917279     1.58100
O646        O  0.20351381  0.26324419  0.74412901    -0.87500
O647        O  0.22157928  0.25847334  0.80023334    -0.74800
C648        C  0.26938635  0.18065167  0.67588633     0.93300
O649        O  0.30147901  0.27921742  0.75797700    -0.74600
O650        O  0.28718938  0.18533978  0.69074822    -0.82100
Mg651      Mg  0.27392724  0.29127819  0.78845153     1.58000
C652        C  0.17810092  0.23204885  0.67728216     0.93200
O653        O  0.24989998  0.30758552  0.82022487    -0.80400
H654        H  0.17713609  0.24463330  0.76251251    -0.05700
C655        C  0.25674288  0.25300470  0.69043729     0.88200
O656        O  0.25976780  0.19742066  0.77502595    -0.74900
O657        O  0.24502838  0.29656564  0.76116715    -0.87700
O658        O  0.17982275  0.25277166  0.68874208    -0.80500
C659        C  0.17910840  0.32345861  0.72926955     0.93400
C660        C  0.22939491  0.31932092  0.82214454     0.93200
Mg661      Mg  0.22484901  0.21003050  0.70889453     1.58000
O662        O  0.24812448  0.19083034  0.67848048    -0.80400
O663        O  0.19759586  0.22334368  0.73903151    -0.74700
O664        O  0.18975466  0.32112025  0.75041208    -0.80500
O665        O  0.30435275  0.28621672  0.81699608    -0.82200
O666        O  0.30897373  0.18155043  0.74483588    -0.80500
C667        C  0.19196790  0.24400034  0.74896959     0.87600
O668        O  0.25423827  0.20563776  0.73559102    -0.87700
O669        O  0.23778367  0.24742291  0.70213922    -0.87800
O670        O  0.27778519  0.24366485  0.69572135    -0.74800
Mg671      Mg  0.20781222  0.28962364  0.77391644     1.58000
O672        O  0.18242478  0.30784371  0.71176668    -0.82200
H673        H  0.24285530  0.23389325  0.81951565    -0.05900
O674        O  0.29598102  0.23928283  0.75226531    -0.87500
H675        H  0.32205028  0.25851384  0.73404769    -0.05800
H676        H  0.23638298  0.17788502  0.75268740    -0.05900
C677        C  0.30727681  0.25876185  0.74766695     0.87600
C678        C  0.24225975  0.24812459  0.80532499     0.88200
C679        C  0.24968378  0.19289122  0.75413852     0.88300
H680        H  0.25552131  0.26680637  0.67586513    -0.05900
O681        O  0.24086146  0.30350410  0.72122227    -0.74900
Mg682      Mg  0.29139097  0.21308344  0.72226922     1.58000
H683        H  0.26401973  0.32325589  0.74360566    -0.05900
C684        C  0.32049814  0.26931970  0.82053523     0.93200
O685        O  0.31858930  0.19374502  0.78331986    -0.82200
C686        C  0.32047332  0.17840693  0.76529510     0.93300
O687        O  0.21228982  0.31748493  0.80582662    -0.82100
Mg688      Mg  0.21069228  0.27657611  0.70704966     1.58200
O689        O  0.31996481  0.24872798  0.80867214    -0.80500
O690        O  0.19415472  0.21494768  0.68040744    -0.82200
N691        N  0.00153209  0.46212095  0.73406182    -0.36000
N692        N  0.03761195  0.50265477  0.74071388    -0.56600
N693        N  0.99706958  0.53829342  0.74175825    -0.36000
N694        N  0.96099689  0.49753773  0.73781067    -0.56600
C695        C  0.02275177  0.44884181  0.73666274     0.27600
C696        C  0.98213008  0.44621518  0.73692239     0.27600
C697        C  0.01597134  0.55311386  0.74952372     0.27600
C698        C  0.97549532  0.55042204  0.74639363     0.27600
C699        C  0.05369815  0.48386361  0.73602862     0.36200
C700        C  0.05125962  0.52381231  0.74199034     0.36200
C701        C  0.94779699  0.47691273  0.73207548     0.36200
C702        C  0.94566545  0.51704672  0.73389927     0.36200
C703        C  0.01672762  0.42404797  0.74065249    -0.21300
C704        C  0.99115791  0.42245244  0.74102562    -0.21300
C705        C  0.00624038  0.57510519  0.75881588    -0.21300
C706        C  0.98074822  0.57338228  0.75690959    -0.21300
C707        C  0.07773797  0.49312841  0.73468535    -0.22400
C708        C  0.07620010  0.51835177  0.73853072    -0.22400
C709        C  0.92392543  0.48330560  0.72478378    -0.22400
C710        C  0.92267535  0.50873619  0.72559210    -0.22400
C711        C  0.04740362  0.45823189  0.73469675    -0.17700
C712        C  0.95655102  0.45226996  0.73439736    -0.17700
C713        C  0.95127614  0.54202857  0.73994677    -0.17700
C714        C  0.04178595  0.54780445  0.74761967    -0.17700
H715        H  0.02939956  0.40860851  0.74307238     0.15200
H716        H  0.98044213  0.40561914  0.74362117     0.15200
H717        H  0.01643652  0.59083411  0.76615515     0.15200
H718        H  0.96757254  0.58754257  0.76245676     0.15200
H719        H  0.09471607  0.48273812  0.73172849     0.13500
H720        H  0.09172198  0.53115974  0.73898135     0.13500
H721        H  0.90898006  0.47094754  0.71936830     0.13500
H722        H  0.90645988  0.51979491  0.72112296     0.13500
H723        H  0.00053301  0.48042502  0.72814637     0.26700
H724        H  0.99874627  0.52210230  0.73141836     0.26700
N725        N  0.50078053  0.26920421  0.03864206    -0.36000
N726        N  0.45959745  0.27007128  0.00294972    -0.56600
N727        N  0.49538312  0.26997674  0.96275434    -0.36000
N728        N  0.53651653  0.26648483  0.99843465    -0.56600
C729        C  0.48132020  0.26528631  0.05405584     0.27600
C730        C  0.52172171  0.26386276  0.05159731     0.27600
C731        C  0.47405752  0.26641947  0.94975907     0.27600
C732        C  0.51455825  0.26473721  0.94733507     0.27600
C733        C  0.44660291  0.27367863  0.02415014     0.36200
C734        C  0.44372115  0.27436656  0.98387411     0.36200
C735        C  0.55261101  0.26940626  0.01759428     0.36200
C736        C  0.54975673  0.26989041  0.97735930     0.36200
C737        C  0.49005619  0.25768382  0.07715175    -0.21300
C738        C  0.51550295  0.25672845  0.07557202    -0.21300
C739        C  0.47980025  0.25887409  0.92577102    -0.21300
C740        C  0.50533181  0.25787824  0.92422782    -0.21300
C741        C  0.42221287  0.27991789  0.01852512    -0.22400
C742        C  0.42041619  0.28045883  0.99300150    -0.22400
C743        C  0.57628664  0.27413335  0.00865959    -0.22400
C744        C  0.57449073  0.27443297  0.98315647    -0.22400
C745        C  0.45598177  0.26981370  0.04847298    -0.17700
C746        C  0.54640009  0.26684009  0.04302007    -0.17700
C747        C  0.54013553  0.26785026  0.95291327    -0.17700
C748        C  0.44962696  0.27138276  0.95838187    -0.17700
H749        H  0.47927923  0.25353554  0.09362156     0.15200
H750        H  0.52802405  0.25166596  0.09052424     0.15200
H751        H  0.46693420  0.25486497  0.91079087     0.15200
H752        H  0.51591022  0.25297422  0.90783096     0.15200
H753        H  0.40721872  0.28348140  0.03145583     0.13500
H754        H  0.40377742  0.28450370  0.98239056     0.13500
H755        H  0.59309711  0.27698170  0.01938909     0.13500
H756        H  0.58969340  0.27753010  0.97034856     0.13500
H757        H  0.49994436  0.27782918  0.02141471     0.26700
H758        H  0.49691063  0.27855089  0.97996823     0.26700
N759        N  0.46286990  0.76900032  0.00214282    -0.36000
N760        N  0.50235668  0.75971069  0.03796875    -0.56600
N761        N  0.53822522  0.75740453  0.99688179    -0.36000
N762        N  0.49820021  0.76381879  0.96118639    -0.56600
C763        C  0.44929509  0.76548244  0.02304135     0.27600
C764        C  0.44706068  0.76722506  0.98261484     0.27600
C765        C  0.55297422  0.75076596  0.01620726     0.27600
C766        C  0.55054631  0.75192206  0.97556740     0.27600
C767        C  0.48382280  0.76542083  0.05402130     0.36200
C768        C  0.52369735  0.75985903  0.05132032     0.36200
C769        C  0.47785764  0.77053811  0.94802336     0.36200
C770        C  0.51757160  0.76439509  0.94520264     0.36200
C771        C  0.42454480  0.76186156  0.01671370    -0.21300
C772        C  0.42313657  0.76295242  0.99124153    -0.21300
C773        C  0.57513259  0.74123840  0.00709553    -0.21300
C774        C  0.57354684  0.74182586  0.98148883    -0.21300
C775        C  0.49333015  0.76860373  0.07775988    -0.22400
C776        C  0.51857190  0.76510214  0.07606428    -0.22400
C777        C  0.48428016  0.77527803  0.92352284    -0.22400
C778        C  0.50944684  0.77141541  0.92173474    -0.22400
C779        C  0.45827188  0.76674067  0.04777946    -0.17700
C780        C  0.45326164  0.77045862  0.95724571    -0.17700
C781        C  0.54214573  0.75690691  0.95096305    -0.17700
C782        C  0.54772946  0.75470087  0.04178992    -0.17700
H783        H  0.40903440  0.75884166  0.02916733     0.15200
H784        H  0.40632047  0.76094694  0.98033017     0.15200
H785        H  0.59089059  0.73468642  0.01779849     0.15200
H786        H  0.58787422  0.73583750  0.96869583     0.15200
H787        H  0.48313881  0.77297814  0.09454796     0.13500
H788        H  0.53164587  0.76625111  0.09135236     0.13500
H789        H  0.47203258  0.78054011  0.90841540     0.13500
H790        H  0.52042792  0.77316841  0.90496557     0.13500
H791        H  0.48119309  0.77496158  0.00138684     0.26700
H792        H  0.52200530  0.76768635  0.99829490     0.26700
C793        C  0.39503995  0.25422955  0.91591468    -0.04900
C794        C  0.39329995  0.27553059  0.90064779     0.09300
C795        C  0.40890962  0.29609627  0.90541191    -0.02300
C796        C  0.42694777  0.29488720  0.92453424    -0.00500
C797        C  0.42918014  0.27329209  0.93937194    -0.04100
C798        C  0.41270343  0.25321572  0.93537163     0.02900
C799        C  0.37496096  0.27609119  0.87953988     0.09700
C800        C  0.40621830  0.31855995  0.89074950     0.35600
C801        C  0.41398371  0.23147172  0.95124210     0.39000
C802        C  0.34964044  0.28106848  0.88421149    -0.04500
C803        C  0.33203410  0.27966239  0.86474572     0.02600
C804        C  0.33957676  0.27308158  0.84035673    -0.04100
C805        C  0.36504996  0.26884616  0.83557249    -0.00300
C806        C  0.38265476  0.27029898  0.85509278    -0.02900
C807        C  0.34160748  0.28687797  0.90930477     0.36400
C808        C  0.37320695  0.26355939  0.81043490     0.40000
C809        C  0.30595022  0.28388179  0.87020668     0.39100
C810        C  0.40866500  0.26521362  0.85019247     0.36000
C811        C  0.37871186  0.23324935  0.91135395     0.36700
C812        C  0.44323343  0.31589553  0.92907393     0.40000
N813        N  0.28517027  0.28726745  0.87462443    -0.38100
N814        N  0.33517529  0.29134392  0.92934862    -0.39700
N815        N  0.37965067  0.25956074  0.79030115    -0.37400
N816        N  0.42943362  0.26112288  0.84633636    -0.39800
N817        N  0.40397010  0.33654172  0.87914050    -0.39600
N818        N  0.45628617  0.33260136  0.93277946    -0.37200
N819        N  0.41479821  0.21420149  0.96405305    -0.38300
N820        N  0.36557603  0.21662632  0.90757187    -0.39900
C821        C  0.09596411  0.40906458  0.75127896    -0.04900
C822        C  0.10566062  0.40292936  0.72764236     0.09300
C823        C  0.09687745  0.41565858  0.70638428    -0.02300
C824        C  0.07785614  0.43366290  0.70865610    -0.00500
C825        C  0.06814267  0.43971429  0.73230796    -0.04100
C826        C  0.07772985  0.42778725  0.75365316     0.02900
C827        C  0.12516823  0.38304333  0.72535833     0.09700
C828        C  0.10762646  0.41037646  0.68223899     0.35600
C829        C  0.06868010  0.43480003  0.77806062     0.39000
C830        C  0.11856095  0.35877634  0.71780123    -0.04500
C831        C  0.13647389  0.33952260  0.71790461     0.02600
C832        C  0.16119278  0.34438116  0.72565016    -0.04100
C833        C  0.16807528  0.36901709  0.73167776    -0.00300
C834        C  0.15010878  0.38819707  0.73177576    -0.02900
C835        C  0.09308187  0.35346353  0.71067210     0.36400
C836        C  0.19392159  0.37484494  0.73656225     0.40000
C837        C  0.12914609  0.31450306  0.71093928     0.39100
C838        C  0.15715833  0.41327878  0.73873131     0.36000
C839        C  0.10451768  0.39577922  0.77314395     0.36700
C840        C  0.06816025  0.44594998  0.68667691     0.40000
N841        N  0.12336696  0.29454858  0.70531345    -0.38100
N842        N  0.07275884  0.34923372  0.70495184    -0.39700
N843        N  0.21465850  0.37955709  0.73984340    -0.37400
N844        N  0.16262346  0.43332025  0.74434406    -0.39800
N845        N  0.11632249  0.40625465  0.66299460    -0.39600
N846        N  0.06035450  0.45577205  0.66917314    -0.37200
N847        N  0.06145860  0.44056014  0.79749226    -0.38300
N848        N  0.11130675  0.38507773  0.79054990    -0.39900
C849        C  0.28624040  0.11971791  0.64313740    -0.04900
C850        C  0.27321017  0.12219342  0.62049514     0.09300
C851        C  0.26073322  0.14464927  0.61513402    -0.02300
C852        C  0.26037713  0.16416063  0.63270203    -0.00500
C853        C  0.27270325  0.16152169  0.65588453    -0.04100
C854        C  0.28620034  0.13928722  0.66068413     0.02900
C855        C  0.27161671  0.10078420  0.60265956     0.09700
C856        C  0.24782455  0.14746425  0.59157594     0.35600
C857        C  0.29914488  0.13573573  0.68412394     0.39000
C858        C  0.24928359  0.08708524  0.60062858    -0.04500
C859        C  0.24708101  0.06793731  0.58284871     0.02600
C860        C  0.26732775  0.06206279  0.56720392    -0.04100
C861        C  0.29000924  0.07502569  0.56994339    -0.00300
C862        C  0.29211412  0.09442607  0.58752445    -0.02900
C863        C  0.22855922  0.09271639  0.61693335     0.36400
C864        C  0.31120192  0.06822523  0.55474824     0.40000
C865        C  0.22389538  0.05434258  0.58048146     0.39100
C866        C  0.31531678  0.10794587  0.59000049     0.36000
C867        C  0.29898238  0.09657927  0.64873628     0.36700
C868        C  0.24728695  0.18699474  0.62674162     0.40000
N869        N  0.20547415  0.04336897  0.57860863    -0.38100
N870        N  0.21205622  0.09724540  0.62996465    -0.39700
N871        N  0.32812077  0.06270433  0.54266671    -0.37400
N872        N  0.33386281  0.11865867  0.59214278    -0.39800
N873        N  0.23745258  0.14960404  0.57281901    -0.39600
N874        N  0.23675383  0.20516666  0.62204312    -0.37200
N875        N  0.30965536  0.13268755  0.70267642    -0.38300
N876        N  0.30915033  0.07812631  0.65313342    -0.39900
C877        C  0.35405108  0.76909810  0.11238460    -0.04900
C878        C  0.37852883  0.77338629  0.12088404     0.09300
C879        C  0.38256831  0.77990325  0.14597069    -0.02300
C880        C  0.36232467  0.78166603  0.16261511    -0.00500
C881        C  0.33777994  0.77659543  0.15435861    -0.04100
C882        C  0.33374583  0.77088993  0.12898252     0.02900
C883        C  0.40000063  0.77192708  0.10312562     0.09700
C884        C  0.40771997  0.78425492  0.15474727     0.35600
C885        C  0.30860988  0.76793591  0.11969714     0.39000
C886        C  0.40656224  0.79291692  0.08882942    -0.04500
C887        C  0.42618145  0.79148867  0.07147509     0.02600
C888        C  0.43937394  0.76898777  0.06819889    -0.04100
C889        C  0.43308796  0.74809434  0.08283711    -0.00300
C890        C  0.41345691  0.74956096  0.10023166    -0.02900
C891        C  0.39267027  0.81584807  0.09166950     0.36400
C892        C  0.44637245  0.72488424  0.07941138     0.40000
C893        C  0.43251398  0.81305883  0.05658853     0.39100
C894        C  0.40665085  0.72788437  0.11472403     0.36000
C895        C  0.34989911  0.76254321  0.08653470     0.36700
C896        C  0.36699191  0.78788056  0.18847943     0.40000
N897        N  0.43749521  0.83023677  0.04463044    -0.38100
N898        N  0.38143034  0.83404745  0.09397152    -0.39700
N899        N  0.45708688  0.70643612  0.07661976    -0.37400
N900        N  0.40119525  0.71054099  0.12622679    -0.39800
N901        N  0.42781254  0.78759445  0.16173594    -0.39600
N902        N  0.37069339  0.79295719  0.20908009    -0.37200
N903        N  0.28855204  0.76602874  0.11210940    -0.38300
N904        N  0.34679416  0.75724880  0.06589450    -0.39900
C905        C  0.25069939  0.89795815  0.41395403    -0.04900
C906        C  0.22984287  0.90022182  0.39809081     0.09300
C907        C  0.21224280  0.91915836  0.40264541    -0.02300
C908        C  0.21585382  0.93613634  0.42243003    -0.00500
C909        C  0.23724951  0.93447437  0.43771230    -0.04100
C910        C  0.25451003  0.91511492  0.43351668     0.02900
C911        C  0.22671076  0.88267265  0.37647579     0.09700
C912        C  0.19045567  0.92117733  0.38686842     0.35600
C913        C  0.27653293  0.91323342  0.44900905     0.39000
C914        C  0.21354716  0.86022585  0.37944395    -0.04500
C915        C  0.21286461  0.84247755  0.36000249     0.02600
C916        C  0.22545279  0.84697245  0.33719452    -0.04100
C917        C  0.23694621  0.87046057  0.33369147    -0.00300
C918        C  0.23774295  0.88805533  0.35328988    -0.02900
C919        C  0.20104593  0.85524972  0.40282618     0.36400
C920        C  0.24736029  0.87692432  0.30967347     0.40000
C921        C  0.19970158  0.81934299  0.36406911     0.39100
C922        C  0.25017758  0.91171814  0.34977025     0.36000
C923        C  0.26827171  0.87789101  0.41006840     0.36700
C924        C  0.19767912  0.95552605  0.42696739     0.40000
N925        N  0.18885081  0.80110330  0.36750976    -0.38100
N926        N  0.19102381  0.85138601  0.42146797    -0.39700
N927        N  0.25548893  0.88219639  0.29045863    -0.37400
N928        N  0.26004448  0.93064829  0.34708718    -0.39800
N929        N  0.17304185  0.92274005  0.37428778    -0.39600
N930        N  0.18327001  0.97108647  0.43059945    -0.37200
N931        N  0.29407903  0.91180580  0.46142266    -0.38300
N932        N  0.28218883  0.86177436  0.40699587    -0.39900
C933        C  0.11076440  0.65164394  0.23104501    -0.04900
C934        C  0.11786697  0.62656841  0.22773486     0.09300
C935        C  0.14264731  0.62099922  0.22120394    -0.02300
C936        C  0.16050805  0.64016078  0.21929465    -0.00500
C937        C  0.15374349  0.66520359  0.22375235    -0.04100
C938        C  0.12858624  0.67090728  0.22882207     0.02900
C939        C  0.09978090  0.60578312  0.23255577     0.09700
C940        C  0.14994727  0.59531659  0.21739154     0.35600
C941        C  0.12101388  0.69664264  0.23138009     0.39000
C942        C  0.08369792  0.59730624  0.21358691    -0.04500
C943        C  0.06746316  0.57711834  0.21803523     0.02600
C944        C  0.06687276  0.56545914  0.24161571    -0.04100
C945        C  0.08311061  0.57382962  0.26052534    -0.00300
C946        C  0.09952066  0.59385471  0.25598358    -0.02900
C947        C  0.08381400  0.60943939  0.18951176     0.36400
C948        C  0.08273796  0.56197625  0.28473701     0.40000
C949        C  0.05137805  0.56814138  0.19829745     0.39100
C950        C  0.11612957  0.60239206  0.27546974     0.36000
C951        C  0.08526586  0.65749896  0.23750773     0.36700
C952        C  0.18620161  0.63381538  0.21417870     0.40000
N953        N  0.03853211  0.56082110  0.18263301    -0.38100
N954        N  0.08379926  0.61916077  0.17030646    -0.39700
N955        N  0.08251364  0.55242985  0.30402776    -0.37400
N956        N  0.12946093  0.60930842  0.29090886    -0.39800
N957        N  0.15571346  0.57480013  0.21445042    -0.39600
N958        N  0.20669243  0.62867572  0.21014739    -0.37200
N959        N  0.11497920  0.71721070  0.23326831    -0.38300
N960        N  0.06491061  0.66210883  0.24273930    -0.39900
C961        C  0.64614941  0.27233579  0.11620358    -0.04900
C962        C  0.62121509  0.26649690  0.12162224     0.09300
C963        C  0.61447420  0.26029242  0.14614756    -0.02300
C964        C  0.63272114  0.25897931  0.16504863    -0.00500
C965        C  0.65819940  0.26334417  0.15952878    -0.04100
C966        C  0.66457612  0.27085004  0.13493293     0.02900
C967        C  0.60209129  0.26666295  0.10128429     0.09700
C968        C  0.58863573  0.25505790  0.15186760     0.35600
C969        C  0.69007211  0.27661104  0.12831043     0.39000
C970        C  0.59909093  0.24562145  0.08585206    -0.04500
C971        C  0.58147959  0.24589180  0.06633902     0.02600
C972        C  0.56670834  0.26720544  0.06217292    -0.04100
C973        C  0.56975530  0.28825682  0.07762695    -0.00300
C974        C  0.58725640  0.28791505  0.09721607    -0.02900
C975        C  0.61376352  0.22348210  0.09051459     0.36400
C976        C  0.55467447  0.31021745  0.07341796     0.40000
C977        C  0.57813800  0.22406847  0.05086137     0.39100
C978        C  0.58970611  0.30923315  0.11354478     0.36000
C979        C  0.65282287  0.27959710  0.09106760     0.36700
C980        C  0.62485516  0.25393486  0.19033052     0.40000
N981        N  0.57546908  0.20668650  0.03845472    -0.38100
N982        N  0.62542891  0.20581648  0.09438435    -0.39700
N983        N  0.54258191  0.32768747  0.07000024    -0.37400
N984        N  0.59154598  0.32614130  0.12673188    -0.39800
N985        N  0.56802239  0.25091812  0.15643759    -0.39600
N986        N  0.61836145  0.25010180  0.21047475    -0.37200
N987        N  0.71028700  0.28145540  0.12277023    -0.38300
N988        N  0.65800326  0.28536223  0.07099064    -0.39900
C989        C  0.90842546  0.40594173  0.24266613    -0.04900
C990        C  0.89523998  0.40356667  0.26526454     0.09300
C991        C  0.90197037  0.41850523  0.28579566    -0.02300
C992        C  0.92178993  0.43563416  0.28375682    -0.00500
C993        C  0.93509200  0.43784581  0.26121795    -0.04100
C994        C  0.92822635  0.42305778  0.24063427     0.02900
C995        C  0.87500327  0.38445809  0.26756212     0.09700
C996        C  0.88857680  0.41609117  0.30904828     0.35600
C997        C  0.94131141  0.42582505  0.21722979     0.39000
C998        C  0.88127389  0.35943039  0.27204883    -0.04500
C999        C  0.86279327  0.34077698  0.27143173     0.02600
C1000       C  0.83756924  0.34702862  0.26646211    -0.04100
C1001       C  0.83113299  0.37251094  0.26413986    -0.00300
C1002       C  0.84982286  0.39104699  0.26423068    -0.02900
C1003       C  0.90705828  0.35283851  0.27662271     0.36400
C1004       C  0.80522846  0.37984094  0.26241893     0.40000
C1005       C  0.87025923  0.31509273  0.27494372     0.39100
C1006       C  0.84326819  0.41689921  0.26025855     0.36000
C1007       C  0.90154966  0.39069374  0.22149308     0.36700
C1008       C  0.92847141  0.45117918  0.30476284     0.40000
N1009       N  0.87633344  0.29465867  0.27787426    -0.38100
N1010       N  0.92764724  0.34769507  0.28023773    -0.39700
N1011       N  0.78456533  0.38578299  0.26135129    -0.37400
N1012       N  0.83810534  0.43753787  0.25703295    -0.39800
N1013       N  0.87786408  0.41416489  0.32760403    -0.39600
N1014       N  0.93386276  0.46368954  0.32143441    -0.37200
N1015       N  0.95173391  0.42813482  0.19855178    -0.38300
N1016       N  0.89603559  0.37845009  0.20466306    -0.39900
C1017       C  0.76399317  0.09479356  0.40677161    -0.04900
C1018       C  0.74060229  0.10553149  0.40155300     0.09300
C1019       C  0.71920346  0.09692571  0.41402266    -0.02300
C1020       C  0.72128127  0.07802152  0.43204356    -0.00500
C1021       C  0.74459375  0.06697215  0.43692761    -0.04100
C1022       C  0.76591828  0.07521563  0.42408587     0.02900
C1023       C  0.73853383  0.12547848  0.38232623     0.09700
C1024       C  0.69501935  0.10719629  0.40794162     0.35600
C1025       C  0.78975661  0.06345027  0.42863135     0.39000
C1026       C  0.73705290  0.11900575  0.35699305    -0.04500
C1027       C  0.73752400  0.13765135  0.33857739     0.02600
C1028       C  0.73777318  0.16314963  0.34542467    -0.04100
C1029       C  0.73800086  0.16950911  0.37101561    -0.00300
C1030       C  0.73933456  0.15071702  0.38931131    -0.02900
C1031       C  0.73602195  0.09298102  0.34991505     0.36400
C1032       C  0.73656725  0.19531749  0.37867165     0.40000
C1033       C  0.73983809  0.13032738  0.31269003     0.39100
C1034       C  0.74282808  0.15723480  0.41527225     0.36000
C1035       C  0.78604225  0.10402369  0.39430404     0.36700
C1036       C  0.69946257  0.06979566  0.44559299     0.40000
N1037       N  0.74202726  0.12445028  0.29209601    -0.38100
N1038       N  0.73518251  0.07220418  0.34438704    -0.39700
N1039       N  0.73516579  0.21585045  0.38494712    -0.37400
N1040       N  0.74606917  0.16226730  0.43595776    -0.39800
N1041       N  0.67566437  0.11521748  0.40299078    -0.39600
N1042       N  0.68220490  0.06321409  0.45661946    -0.37200
N1043       N  0.80874971  0.05393551  0.43211033    -0.38300
N1044       N  0.80356345  0.11156534  0.38436194    -0.39900
C1045       C  0.60787300  0.74972211  0.84438188    -0.04900
C1046       C  0.61169533  0.74185299  0.86912756     0.09300
C1047       C  0.63453687  0.73088164  0.87583721    -0.02300
C1048       C  0.65399898  0.72902574  0.85835904    -0.00500
C1049       C  0.65059808  0.73752127  0.83362600    -0.04100
C1050       C  0.62710359  0.74724443  0.82660417     0.02900
C1051       C  0.59249958  0.74649780  0.88881915     0.09700
C1052       C  0.63824503  0.72228349  0.90116303     0.35600
C1053       C  0.62254759  0.75445173  0.80102201     0.39000
C1054       C  0.57417378  0.72849558  0.89409466    -0.04500
C1055       C  0.55786650  0.73183790  0.91441372     0.02600
C1056       C  0.55980766  0.75320765  0.92964126    -0.04100
C1057       C  0.57765898  0.77157519  0.92382974    -0.00300
C1058       C  0.59395412  0.76820226  0.90352370    -0.02900
C1059       C  0.57226556  0.70647342  0.87866354     0.36400
C1060       C  0.57900073  0.79412081  0.93853710     0.40000
C1061       C  0.53896067  0.71334886  0.91965086     0.39100
C1062       C  0.61241565  0.78698198  0.89771737     0.36000
C1063       C  0.58437442  0.76101345  0.83744246     0.36700
C1064       C  0.67802975  0.71990717  0.86652308     0.40000
N1065       N  0.52372915  0.69873252  0.92380444    -0.38100
N1066       N  0.57073285  0.68893963  0.86627929    -0.39700
N1067       N  0.58006305  0.81217896  0.95019148    -0.37400
N1068       N  0.62719774  0.80185068  0.89289068    -0.39800
N1069       N  0.64105411  0.71546613  0.92138991    -0.39600
N1070       N  0.69718804  0.71272358  0.87318905    -0.37200
N1071       N  0.61880172  0.76002943  0.78057384    -0.38300
N1072       N  0.56566382  0.77013096  0.83193091    -0.39900
C1073       C  0.85387928  0.61726684  0.71951420    -0.04900
C1074       C  0.87097707  0.61486725  0.73937329     0.09300
C1075       C  0.87027088  0.63200552  0.75922330    -0.02300
C1076       C  0.85255730  0.65131268  0.75934074    -0.00500
C1077       C  0.83567110  0.65407015  0.73924447    -0.04100
C1078       C  0.83648205  0.63696074  0.71929764     0.02900
C1079       C  0.89085288  0.59531940  0.73879061     0.09700
C1080       C  0.88856256  0.63038756  0.77906289     0.35600
C1081       C  0.81931207  0.63944767  0.69862078     0.39000
C1082       C  0.91083693  0.59751512  0.72191241    -0.04500
C1083       C  0.93003138  0.57969227  0.72180804     0.02600
C1084       C  0.93039248  0.56051675  0.73976100    -0.04100
C1085       C  0.91059873  0.55856063  0.75698940    -0.00300
C1086       C  0.89049698  0.57539270  0.75592267    -0.02900
C1087       C  0.91186008  0.61843266  0.70491087     0.36400
C1088       C  0.91090790  0.53919749  0.77579513     0.40000
C1089       C  0.94921631  0.58081355  0.70289839     0.39100
C1090       C  0.86935135  0.57214440  0.77234399     0.36000
C1091       C  0.85456584  0.59970045  0.69904969     0.36700
C1092       C  0.85269176  0.66910831  0.77965793     0.40000
N1093       N  0.96445519  0.58159087  0.68773974    -0.38100
N1094       N  0.91257063  0.63517210  0.69140882    -0.39700
N1095       N  0.91114157  0.52364946  0.79067944    -0.37400
N1096       N  0.85245083  0.56945329  0.78537965    -0.39800
N1097       N  0.90322185  0.62905772  0.79479407    -0.39600
N1098       N  0.85283974  0.68326843  0.79586987    -0.37200
N1099       N  0.80569131  0.64145843  0.68205169    -0.38300
N1100       N  0.85535044  0.58578950  0.68264532    -0.39900
C1101       C  0.71728380  0.89932698  0.58012922    -0.04900
C1102       C  0.73699056  0.89466491  0.59685986     0.09300
C1103       C  0.75807817  0.91033030  0.59682795    -0.02300
C1104       C  0.75966144  0.93024535  0.57983882    -0.00500
C1105       C  0.74020962  0.93455454  0.56272223    -0.04100
C1106       C  0.71897436  0.91910153  0.56296826     0.02900
C1107       C  0.73518947  0.87386894  0.61529304     0.09700
C1108       C  0.77798523  0.90610174  0.61456291     0.35600
C1109       C  0.69876174  0.92380067  0.54570130     0.39000
C1110       C  0.74136332  0.84929368  0.60838300    -0.04500
C1111       C  0.74078876  0.82998647  0.62623240     0.02600
C1112       C  0.73429093  0.83525863  0.65114877    -0.04100
C1113       C  0.72780433  0.85988724  0.65788058    -0.00300
C1114       C  0.72807333  0.87900796  0.63998013    -0.02900
C1115       C  0.74880689  0.84406381  0.58299991     0.36400
C1116       C  0.72221441  0.86596128  0.68360492     0.40000
C1117       C  0.74651231  0.80469278  0.61888233     0.39100
C1118       C  0.72161027  0.90421908  0.64708147     0.36000
C1119       C  0.69502828  0.88413576  0.58104941     0.36700
C1120       C  0.78127526  0.94636696  0.57992016     0.40000
N1121       N  0.75102293  0.78450461  0.61295671    -0.38100
N1122       N  0.75478092  0.84000158  0.56272814    -0.39700
N1123       N  0.71788421  0.87075311  0.70413888    -0.37400
N1124       N  0.71654593  0.92435077  0.65272641    -0.39800
N1125       N  0.79375279  0.90276822  0.62885506    -0.39600
N1126       N  0.79844273  0.95934236  0.57999931    -0.37200
N1127       N  0.68268002  0.92762393  0.53188900    -0.38300
N1128       N  0.67721047  0.87209970  0.58191482    -0.39900
C1129       C  0.79586015  0.39919278  0.08268843    -0.04900
C1130       C  0.77364649  0.38996465  0.09317533     0.09300
C1131       C  0.75070558  0.40098112  0.08669252    -0.02300
C1132       C  0.75001539  0.42155309  0.07044193    -0.00500
C1133       C  0.77224120  0.43112341  0.06027738    -0.04100
C1134       C  0.79517121  0.41974955  0.06629850     0.02900
C1135       C  0.77434151  0.37023347  0.11288579     0.09700
C1136       C  0.72777924  0.39106599  0.09683536     0.35600
C1137       C  0.81803782  0.42941896  0.05583466     0.39000
C1138       C  0.77500004  0.37735310  0.13809431    -0.04500
C1139       C  0.77240516  0.35940643  0.15704780     0.02600
C1140       C  0.77026534  0.33378654  0.15101340    -0.04100
C1141       C  0.77087914  0.32662278  0.12560868    -0.00300
C1142       C  0.77252455  0.34482467  0.10666396    -0.02900
C1143       C  0.77771560  0.40344383  0.14445600     0.36400
C1144       C  0.77001631  0.30053618  0.11882369     0.40000
C1145       C  0.77015273  0.36777274  0.18261587     0.39100
C1146       C  0.77185428  0.33749891  0.08071264     0.36000
C1147       C  0.81936640  0.38750799  0.08886579     0.36700
C1148       C  0.72639959  0.43292783  0.06406829     0.40000
N1149       N  0.76814046  0.37455715  0.20294474    -0.38100
N1150       N  0.77999273  0.42426685  0.14936760    -0.39700
N1151       N  0.76935705  0.27972845  0.11337274    -0.37400
N1152       N  0.77124920  0.33163561  0.06000575    -0.39800
N1153       N  0.70952481  0.38302466  0.10488855    -0.39600
N1154       N  0.70761450  0.44211885  0.05896573    -0.37200
N1155       N  0.83630880  0.43717474  0.04753868    -0.38300
N1156       N  0.83807743  0.37804867  0.09375786    -0.39900
C1157       C  0.78633204  0.60000336  0.91671361    -0.04900
C1158       C  0.76518323  0.60811950  0.90337561     0.09300
C1159       C  0.74208400  0.59627174  0.90747741    -0.02300
C1160       C  0.74012100  0.57652291  0.92475156    -0.00500
C1161       C  0.76123148  0.56854092  0.93823756    -0.04100
C1162       C  0.78428440  0.58053024  0.93428377     0.02900
C1163       C  0.76717726  0.62842487  0.88417968     0.09700
C1164       C  0.72044890  0.60412518  0.89338642     0.35600
C1165       C  0.80595149  0.57259849  0.94828710     0.39000
C1166       C  0.77330181  0.62243846  0.85938209    -0.04500
C1167       C  0.77224489  0.64081111  0.84062168     0.02600
C1168       C  0.76558196  0.66560931  0.84655224    -0.04100
C1169       C  0.76100138  0.67192123  0.87164286    -0.00300
C1170       C  0.76153575  0.65334945  0.89033870    -0.02900
C1171       C  0.78040607  0.59718716  0.85313426     0.36400
C1172       C  0.75675555  0.69767215  0.87832453     0.40000
C1173       C  0.77704339  0.63386588  0.81497092     0.39100
C1174       C  0.75622236  0.65980789  0.91595669     0.36000
C1175       C  0.81033239  0.61124991  0.91186861     0.36700
C1176       C  0.71641822  0.56428917  0.92855197     0.40000
N1177       N  0.78081726  0.62838861  0.79449761    -0.38100
N1178       N  0.78624718  0.57707915  0.84819581    -0.39700
N1179       N  0.75372927  0.71829593  0.88365811    -0.37400
N1180       N  0.75201071  0.66492380  0.93643235    -0.39800
N1181       N  0.70332449  0.61048963  0.88198008    -0.39600
N1182       N  0.69745606  0.55457973  0.93157342    -0.37200
N1183       N  0.82310243  0.56615951  0.95961168    -0.38300
N1184       N  0.82957554  0.62001534  0.90789053    -0.39900
C1185       C  0.21210541  0.40401512  0.91241921    -0.04900
C1186       C  0.23286294  0.39123638  0.90271711     0.09300
C1187       C  0.25704529  0.39842160  0.91004221    -0.02300
C1188       C  0.26048429  0.41870970  0.92638798    -0.00500
C1189       C  0.23972446  0.43179282  0.93581796    -0.04100
C1190       C  0.21551121  0.42421230  0.92889157     0.02900
C1191       C  0.22947734  0.37229868  0.88247625     0.09700
C1192       C  0.27837618  0.38488411  0.90063079     0.35600
C1193       C  0.19409072  0.43724155  0.93877097     0.39000
C1194       C  0.22776119  0.38042850  0.85761014    -0.04500
C1195       C  0.22634955  0.36303461  0.83804325     0.02600
C1196       C  0.22663131  0.33724779  0.84308752    -0.04100
C1197       C  0.22726209  0.32908341  0.86807219    -0.00300
C1198       C  0.22886433  0.34656383  0.88772673    -0.02900
C1199       C  0.22848179  0.40685545  0.85215981     0.36400
C1200       C  0.22589859  0.30271952  0.87348702     0.40000
C1201       C  0.22604035  0.37185722  0.81261447     0.39100
C1202       C  0.23046562  0.33812731  0.91327726     0.36000
C1203       C  0.18724342  0.39631879  0.90532534     0.36700
C1204       C  0.28537577  0.42592038  0.93387170     0.40000
N1205       N  0.22595729  0.37929695  0.79244706    -0.38100
N1206       N  0.22915789  0.42795561  0.84801440    -0.39700
N1207       N  0.22460074  0.28166733  0.87774400    -0.37400
N1208       N  0.23184987  0.33137304  0.93367322    -0.39800
N1209       N  0.29530382  0.37390699  0.89316050    -0.39600
N1210       N  0.30522404  0.43158978  0.93999337    -0.37200
N1211       N  0.17701266  0.44770059  0.94662609    -0.38300
N1212       N  0.16744712  0.39003792  0.89964725    -0.39900
C1213       C  0.27017267  0.64684772  0.11102163    -0.04900
C1214       C  0.26729803  0.62205839  0.11915671     0.09300
C1215       C  0.26588628  0.61717059  0.14494416    -0.02300
C1216       C  0.26603044  0.63697159  0.16234155    -0.00500
C1217       C  0.26746512  0.66190390  0.15415277    -0.04100
C1218       C  0.27029490  0.66665013  0.12839653     0.02900
C1219       C  0.26401999  0.60133439  0.10051351     0.09700
C1220       C  0.26383879  0.59170580  0.15350363     0.35600
C1221       C  0.27224418  0.69200644  0.11955798     0.39000
C1222       C  0.28451029  0.58695880  0.09250601    -0.04500
C1223       C  0.28108460  0.56746963  0.07512032     0.02600
C1224       C  0.25721839  0.56240388  0.06529896    -0.04100
C1225       C  0.23677946  0.57686616  0.07317099    -0.00300
C1226       C  0.24016295  0.59622282  0.09066331    -0.02900
C1227       C  0.30920696  0.59261404  0.10171380     0.36400
C1228       C  0.21225571  0.57185110  0.06311462     0.40000
C1229       C  0.30214160  0.55274283  0.06697490     0.39100
C1230       C  0.21912438  0.61123259  0.09831057     0.36000
C1231       C  0.27236171  0.65196468  0.08461916     0.36700
C1232       C  0.26526099  0.63170176  0.18876403     0.40000
N1233       N  0.31881457  0.54087098  0.06034691    -0.38100
N1234       N  0.32899126  0.59716367  0.10889317    -0.39700
N1235       N  0.19269539  0.56779896  0.05507076    -0.37400
N1236       N  0.20242510  0.62335641  0.10438804    -0.39800
N1237       N  0.26224809  0.57133796  0.16024692    -0.39600
N1238       N  0.26491223  0.62756070  0.20988591    -0.37200
N1239       N  0.27377069  0.71219021  0.11230899    -0.38300
N1240       N  0.27408783  0.65595890  0.06353597    -0.39900
C1241       C  0.40080680  0.08536707  0.78194749    -0.04900
C1242       C  0.38856887  0.09448067  0.76055056     0.09300
C1243       C  0.39483174  0.08477486  0.73693288    -0.02300
C1244       C  0.41380814  0.06672317  0.73471167    -0.00500
C1245       C  0.42689272  0.05861654  0.75602511    -0.04100
C1246       C  0.42004773  0.06769711  0.77967176     0.02900
C1247       C  0.37070306  0.11581448  0.76283017     0.09700
C1248       C  0.38218591  0.09384689  0.71488224     0.35600
C1249       C  0.43310629  0.05902236  0.80163862     0.39000
C1250       C  0.37999750  0.14014310  0.76615730    -0.04500
C1251       C  0.36352185  0.16047157  0.76824671     0.02600
C1252       C  0.33753998  0.15668210  0.76700586    -0.04100
C1253       C  0.32823233  0.13227579  0.76393679    -0.00300
C1254       C  0.34475101  0.11191126  0.76190832    -0.02900
C1255       C  0.40667259  0.14425398  0.76677048     0.36400
C1256       C  0.30159163  0.12816530  0.76280605     0.40000
C1257       C  0.37344325  0.18544478  0.77026738     0.39100
C1258       C  0.33509162  0.08695694  0.75867344     0.36000
C1259       C  0.39377704  0.09451953  0.80631208     0.36700
C1260       C  0.42024467  0.05677664  0.71048851     0.40000
N1261       N  0.38155505  0.20531048  0.77172540    -0.38100
N1262       N  0.42797355  0.14731289  0.76725015    -0.39700
N1263       N  0.28032637  0.12496654  0.76184157    -0.37400
N1264       N  0.32737433  0.06704577  0.75602634    -0.39800
N1265       N  0.37208091  0.10105758  0.69727789    -0.39600
N1266       N  0.42537647  0.04871806  0.69120398    -0.37200
N1267       N  0.44364015  0.05208274  0.81909454    -0.38300
N1268       N  0.38810751  0.10185034  0.82573067    -0.39900
C1269       C  0.60413983  0.91955222  0.73550742    -0.04900
C1270       C  0.60614929  0.90469229  0.75710793     0.09300
C1271       C  0.58856087  0.90757343  0.77640932    -0.02300
C1272       C  0.56915402  0.92510809  0.77409799    -0.00500
C1273       C  0.56745429  0.94028675  0.75272197    -0.04100
C1274       C  0.58487198  0.93728863  0.73332887     0.02900
C1275       C  0.62529718  0.88437528  0.75838963     0.09700
C1276       C  0.59009121  0.89203702  0.79840568     0.35600
C1277       C  0.58226214  0.95173347  0.71071018     0.39000
C1278       C  0.65053015  0.88975584  0.76362780    -0.04500
C1279       C  0.66839522  0.87041190  0.76413825     0.02600
C1280       C  0.66130345  0.84582212  0.75836632    -0.04100
C1281       C  0.63622776  0.84061938  0.75251135    -0.00300
C1282       C  0.61819921  0.85962991  0.75327722    -0.02900
C1283       C  0.65810724  0.91520642  0.76821773     0.36400
C1284       C  0.62913189  0.81584379  0.74457156     0.40000
C1285       C  0.69403767  0.87572859  0.77057070     0.39100
C1286       C  0.59225939  0.85376065  0.74865219     0.36000
C1287       C  0.62144767  0.91593597  0.71516421     0.36700
C1288       C  0.55035757  0.92701661  0.79334079     0.40000
N1289       N  0.71449946  0.87987731  0.77583812    -0.38100
N1290       N  0.66421030  0.93555433  0.77164590    -0.39700
N1291       N  0.62351036  0.79623818  0.73772728    -0.37400
N1292       N  0.57150301  0.84912837  0.74531041    -0.39800
N1293       N  0.59118055  0.87956030  0.81591231    -0.39600
N1294       N  0.53512245  0.92841872  0.80846178    -0.37200
N1295       N  0.58001940  0.96313308  0.69258804    -0.38300
N1296       N  0.63528779  0.91292869  0.69897435    -0.39900
C1297       C  0.34551394  0.77455750  0.89461549    -0.04900
C1298       C  0.37069986  0.77713041  0.88763625     0.09300
C1299       C  0.37688540  0.78041780  0.86237738    -0.02300
C1300       C  0.35814703  0.77998253  0.84403527    -0.00500
C1301       C  0.33304095  0.77594917  0.85082179    -0.04100
C1302       C  0.32669994  0.77400064  0.87621280     0.02900
C1303       C  0.39108785  0.77528161  0.90652245     0.09700
C1304       C  0.40274146  0.78356820  0.85528948     0.35600
C1305       C  0.30078514  0.77209363  0.88333870     0.39000
C1306       C  0.40400800  0.75260765  0.90949955    -0.04500
C1307       C  0.42455353  0.75116188  0.92573268     0.02600
C1308       C  0.43232959  0.77239585  0.93904677    -0.04100
C1309       C  0.41954936  0.79511106  0.93597506    -0.00300
C1310       C  0.39887778  0.79652208  0.91983817    -0.02900
C1311       C  0.39629123  0.73083767  0.89556369     0.36400
C1312       C  0.42803805  0.81707772  0.94912410     0.40000
C1313       C  0.43781481  0.72786188  0.92874090     0.39100
C1314       C  0.38580220  0.81986862  0.91663498     0.36000
C1315       C  0.33906674  0.77209935  0.92066985     0.36700
C1316       C  0.36491769  0.78282448  0.81805828     0.40000
N1317       N  0.44853443  0.70935730  0.93113936    -0.38100
N1318       N  0.39016259  0.71351258  0.88435979    -0.39700
N1319       N  0.43497919  0.83456771  0.95957518    -0.37400
N1320       N  0.37532374  0.83849137  0.91410823    -0.39800
N1321       N  0.42342097  0.78595564  0.84984490    -0.39600
N1322       N  0.37040130  0.78518808  0.79738023    -0.37200
N1323       N  0.28004997  0.77083537  0.88894278    -0.38300
N1324       N  0.33391531  0.77019526  0.94147865    -0.39900
C1325       C  0.11125068  0.65051328  0.76711955    -0.04900
C1326       C  0.11672573  0.62481258  0.76626309     0.09300
C1327       C  0.14178112  0.61705107  0.76777626    -0.02300
C1328       C  0.16117123  0.63478038  0.76913102    -0.00500
C1329       C  0.15576691  0.66051376  0.76900164    -0.04100
C1330       C  0.13068008  0.66827998  0.76811029     0.02900
C1331       C  0.09638088  0.60595680  0.76191944     0.09700
C1332       C  0.14764500  0.59073321  0.76720039     0.35600
C1333       C  0.12490815  0.69460815  0.76796280     0.39000
C1334       C  0.08673485  0.60234859  0.73769840    -0.04500
C1335       C  0.06871843  0.58370685  0.73311237     0.02600
C1336       C  0.06010725  0.56844400  0.75269276    -0.04100
C1337       C  0.06926818  0.57248167  0.77702833    -0.00300
C1338       C  0.08738954  0.59104860  0.78160364    -0.02900
C1339       C  0.09573544  0.61764325  0.71739140     0.36400
C1340       C  0.05989515  0.55750992  0.79737453     0.40000
C1341       C  0.05917261  0.58004718  0.70815094     0.39100
C1342       C  0.09694535  0.59474446  0.80655615     0.36000
C1343       C  0.08555531  0.65862657  0.76691862     0.36700
C1344       C  0.18679879  0.62646813  0.76894309     0.40000
N1345       N  0.05156726  0.57716736  0.68820770    -0.38100
N1346       N  0.10297966  0.62998320  0.70132193    -0.39700
N1347       N  0.05224229  0.54559207  0.81356806    -0.37400
N1348       N  0.10465218  0.59765640  0.82645670    -0.39800
N1349       N  0.15228312  0.56972708  0.76682181    -0.39600
N1350       N  0.20719255  0.61965898  0.76848528    -0.37200
N1351       N  0.12041659  0.71564897  0.76774650    -0.38300
N1352       N  0.06501855  0.66505903  0.76689434    -0.39900
C1353       C  0.24350804  0.88787939  0.65269134    -0.04900
C1354       C  0.23137535  0.88422982  0.62971926     0.09300
C1355       C  0.21618286  0.86315903  0.62633448    -0.02300
C1356       C  0.21480065  0.84468909  0.64498068    -0.00500
C1357       C  0.22818998  0.84749334  0.66763658    -0.04100
C1358       C  0.24144196  0.86994751  0.67178069     0.02900
C1359       C  0.23522922  0.90216896  0.60871699     0.09700
C1360       C  0.20236011  0.86029879  0.60329743     0.35600
C1361       C  0.25257904  0.87497065  0.69587498     0.39000
C1362       C  0.25626769  0.89982576  0.59317547    -0.04500
C1363       C  0.25988165  0.91648478  0.57321599     0.02600
C1364       C  0.24256368  0.93569551  0.56874391    -0.04100
C1365       C  0.22160138  0.93814297  0.58441169    -0.00300
C1366       C  0.21785189  0.92130543  0.60420149    -0.02900
C1367       C  0.27425970  0.88028709  0.59784963     0.36400
C1368       C  0.20411666  0.95827611  0.58036701     0.40000
C1369       C  0.28168711  0.91424091  0.55753396     0.39100
C1370       C  0.19615004  0.92364177  0.62000682     0.36000
C1371       C  0.25854989  0.90995108  0.65646317     0.36700
C1372       C  0.20032517  0.82247222  0.64008606     0.40000
N1373       N  0.29905800  0.91253764  0.54496364    -0.38100
N1374       N  0.28863482  0.86472763  0.60165297    -0.39700
N1375       N  0.19030944  0.97448371  0.57722805    -0.37400
N1376       N  0.17879455  0.92539201  0.63259190    -0.39800
N1377       N  0.19121967  0.85820687  0.58497886    -0.39600
N1378       N  0.18858168  0.80491975  0.63596443    -0.37200
N1379       N  0.26129410  0.87905911  0.71514852    -0.38300
N1380       N  0.27065173  0.92750423  0.65938821    -0.39900
C1381       C  0.28234306  0.58439883  0.90582499    -0.04900
C1382       C  0.26252903  0.60055383  0.89986312     0.09300
C1383       C  0.23950829  0.59785594  0.91219515    -0.02300
C1384       C  0.23610074  0.57864944  0.92979780    -0.00500
C1385       C  0.25562151  0.56185349  0.93502869    -0.04100
C1386       C  0.27880949  0.56490902  0.92307734     0.02900
C1387       C  0.26575070  0.62022267  0.88030101     0.09700
C1388       C  0.21953194  0.61525258  0.90713487     0.35600
C1389       C  0.29917491  0.54824893  0.92897673     0.39000
C1390       C  0.26135261  0.61451843  0.85504782    -0.04500
C1391       C  0.26293337  0.63329163  0.83672456     0.02600
C1392       C  0.26872074  0.65802396  0.84349406    -0.04100
C1393       C  0.27496057  0.66326317  0.86859979    -0.00300
C1394       C  0.27305540  0.64451925  0.88694742    -0.02900
C1395       C  0.25485093  0.58931092  0.84801876     0.36400
C1396       C  0.28287946  0.68802661  0.87580079     0.40000
C1397       C  0.25983408  0.62691870  0.81071783     0.39100
C1398       C  0.27794050  0.65033888  0.91284386     0.36000
C1399       C  0.30659452  0.58843211  0.89479580     0.36700
C1400       C  0.21264453  0.57635253  0.94286843     0.40000
N1401       N  0.25789709  0.62176386  0.78991265    -0.38100
N1402       N  0.24968019  0.56916247  0.84251303    -0.39700
N1403       N  0.28952518  0.70767435  0.88154529    -0.37400
N1404       N  0.28168431  0.65496495  0.93353887    -0.39800
N1405       N  0.20368982  0.62928282  0.90320061    -0.39600
N1406       N  0.19399284  0.57457161  0.95343548    -0.37200
N1407       N  0.31537709  0.53489831  0.93372465    -0.38300
N1408       N  0.32600973  0.59191366  0.88621266    -0.39900
C1409       C  0.38018980  0.85445793  0.72309341    -0.04900
C1410       C  0.38093934  0.87509279  0.73933251     0.09300
C1411       C  0.36117498  0.87912898  0.75611432    -0.02300
C1412       C  0.34081215  0.86264999  0.75666724    -0.00500
C1413       C  0.34002072  0.84199926  0.74039748    -0.04100
C1414       C  0.35965068  0.83809656  0.72343714     0.02900
C1415       C  0.40223736  0.89301963  0.73852806     0.09700
C1416       C  0.36180552  0.90033586  0.77280898     0.35600
C1417       C  0.35899272  0.81690853  0.70677716     0.39000
C1418       C  0.40400796  0.91044785  0.71896057    -0.04500
C1419       C  0.42306288  0.92845611  0.71909026     0.02600
C1420       C  0.43955385  0.93008690  0.73950377    -0.04100
C1421       C  0.43827212  0.91215924  0.75868519    -0.00300
C1422       C  0.41991916  0.89344405  0.75797763    -0.02900
C1423       C  0.38556454  0.91048527  0.69924190     0.36400
C1424       C  0.45548145  0.91334971  0.77946431     0.40000
C1425       C  0.42563219  0.94549085  0.69834392     0.39100
C1426       C  0.41881671  0.87492372  0.77756392     0.36000
C1427       C  0.40081473  0.84985422  0.70637333     0.36700
C1428       C  0.32024752  0.86744089  0.77347260     0.40000
N1429       N  0.42781400  0.95898506  0.68172315    -0.38100
N1430       N  0.37072869  0.91053617  0.68362204    -0.39700
N1431       N  0.46931538  0.91430029  0.79595192    -0.37400
N1432       N  0.41788125  0.86016052  0.79319611    -0.39800
N1433       N  0.36245919  0.91716597  0.78620884    -0.39600
N1434       N  0.30381709  0.87132327  0.78680511    -0.37200
N1435       N  0.35839770  0.80000693  0.69346886    -0.38300
N1436       N  0.41732556  0.84621193  0.69307867    -0.39900
C1437       C  0.09827217  0.70615122  0.41251559    -0.04900
C1438       C  0.10174967  0.72661911  0.39643763     0.09300
C1439       C  0.08496369  0.74682676  0.39757763    -0.02300
C1440       C  0.06554718  0.74702873  0.41530636    -0.00500
C1441       C  0.06238627  0.72677610  0.43174856    -0.04100
C1442       C  0.07843486  0.70604891  0.42977827     0.02900
C1443       C  0.12202587  0.72631062  0.37711671     0.09700
C1444       C  0.08766373  0.76740900  0.38037119     0.35600
C1445       C  0.07421453  0.68445659  0.44534834     0.39000
C1446       C  0.11652817  0.71856558  0.35267501    -0.04500
C1447       C  0.13476091  0.72003650  0.33382965     0.02600
C1448       C  0.15871479  0.72977216  0.33906691    -0.04100
C1449       C  0.16472324  0.73586184  0.36398345    -0.00300
C1450       C  0.14647747  0.73405106  0.38292929    -0.02900
C1451       C  0.09191037  0.70907819  0.34696007     0.36400
C1452       C  0.19001161  0.74277118  0.37032439     0.40000
C1453       C  0.12853158  0.71173060  0.30896128     0.39100
C1454       C  0.15290377  0.73978222  0.40848782     0.36000
C1455       C  0.11515560  0.68519048  0.41125959     0.36700
C1456       C  0.04887622  0.76816517  0.41677601     0.40000
N1457       N  0.12347174  0.70469961  0.28926774    -0.38100
N1458       N  0.07226094  0.70147646  0.34253969    -0.39700
N1459       N  0.21026528  0.74806935  0.37537200    -0.37400
N1460       N  0.15808925  0.74406336  0.42894755    -0.39800
N1461       N  0.08975023  0.78374278  0.36651840    -0.39600
N1462       N  0.03545778  0.78494762  0.41791790    -0.37200
N1463       N  0.07060719  0.66718554  0.45766161    -0.38300
N1464       N  0.12872759  0.66852138  0.41032618    -0.39900
C1465       C  0.88979619  0.74987499  0.65085173    -0.04900
C1466       C  0.88674913  0.76022704  0.62694525     0.09300
C1467       C  0.86506846  0.77393806  0.62152145    -0.02300
C1468       C  0.84593145  0.77619571  0.63942923    -0.00500
C1469       C  0.84803038  0.76416312  0.66290264    -0.04100
C1470       C  0.87063736  0.75184090  0.66875469     0.02900
C1471       C  0.90595770  0.75575611  0.60713950     0.09700
C1472       C  0.86217769  0.78511756  0.59711433     0.35600
C1473       C  0.87455858  0.74160344  0.69341453     0.39000
C1474       C  0.90542050  0.73351412  0.59318567    -0.04500
C1475       C  0.92355145  0.72897051  0.57475613     0.02600
C1476       C  0.94212817  0.74686899  0.56971618    -0.04100
C1477       C  0.94264191  0.76916042  0.58368042    -0.00300
C1478       C  0.92468305  0.77352512  0.60237612    -0.02900
C1479       C  0.88594139  0.71541417  0.59764669     0.36400
C1480       C  0.96154285  0.78770647  0.57861978     0.40000
C1481       C  0.92320876  0.70577393  0.56100142     0.39100
C1482       C  0.92534682  0.79635049  0.61669433     0.36000
C1483       C  0.91266667  0.73687494  0.65684441     0.36700
C1484       C  0.82388859  0.79040759  0.63312458     0.40000
N1485       N  0.92300162  0.68729403  0.54997848    -0.38100
N1486       N  0.87032280  0.70104882  0.60119604    -0.39700
N1487       N  0.97672872  0.80241027  0.57460282    -0.37400
N1488       N  0.92582135  0.81457036  0.62813361    -0.39800
N1489       N  0.85989744  0.79398950  0.57762914    -0.39600
N1490       N  0.80652931  0.80206046  0.62801003    -0.37200
N1491       N  0.87777472  0.73351007  0.71310809    -0.38300
N1492       N  0.93097442  0.72654955  0.66149309    -0.39900
C1493       C  0.09552922  0.75477108  0.59460133    -0.04900
C1494       C  0.11089000  0.73354856  0.59642615     0.09300
C1495       C  0.10674750  0.71320257  0.58037428    -0.02300
C1496       C  0.08714350  0.71389904  0.56286553    -0.00500
C1497       C  0.07165138  0.73507773  0.56108830    -0.04100
C1498       C  0.07613949  0.75564772  0.57686519     0.02900
C1499       C  0.12992893  0.73182903  0.61680548     0.09700
C1500       C  0.12219758  0.69121663  0.58247922     0.35600
C1501       C  0.06045327  0.77752522  0.57518501     0.39000
C1502       C  0.12284489  0.72273081  0.64035544    -0.04500
C1503       C  0.13983404  0.72305474  0.66039729     0.02600
C1504       C  0.16450264  0.73155167  0.65680805    -0.04100
C1505       C  0.17192912  0.73946827  0.63282784    -0.00300
C1506       C  0.15457019  0.74005183  0.61302912    -0.02900
C1507       C  0.09774700  0.71352211  0.64400576     0.36400
C1508       C  0.19754749  0.74668849  0.62845425     0.40000
C1509       C  0.13130448  0.71616011  0.68504315     0.39100
C1510       C  0.16188625  0.74958537  0.58890059     0.36000
C1511       C  0.09919925  0.77536400  0.61163436     0.36700
C1512       C  0.08235871  0.69248937  0.54716535     0.40000
N1513       N  0.12434151  0.71085717  0.70469999    -0.38100
N1514       N  0.07772303  0.70611316  0.64668322    -0.39700
N1515       N  0.21802369  0.75236846  0.62503859    -0.37400
N1516       N  0.16773553  0.75732919  0.56969351    -0.39800
N1517       N  0.13448452  0.67363820  0.58421949    -0.39600
N1518       N  0.07842100  0.67548440  0.53457184    -0.37200
N1519       N  0.04778573  0.79487895  0.57396129    -0.38300
N1520       N  0.10207777  0.79167022  0.62538536    -0.39900
C1521       C  0.59534404  0.73536271  0.09116678    -0.04900
C1522       C  0.60790171  0.75807713  0.09531127     0.09300
C1523       C  0.60114751  0.77928896  0.08140506    -0.02300
C1524       C  0.58202772  0.77782835  0.06348564    -0.00500
C1525       C  0.56912360  0.75529110  0.05966681    -0.04100
C1526       C  0.57574324  0.73406099  0.07364723     0.02900
C1527       C  0.62840215  0.75974175  0.11422673     0.09700
C1528       C  0.61381240  0.80269734  0.08569744     0.35600
C1529       C  0.56219478  0.71102281  0.07015842     0.39000
C1530       C  0.65346302  0.75847490  0.10665006    -0.04500
C1531       C  0.67285425  0.76009626  0.12437249     0.02600
C1532       C  0.66736054  0.76268031  0.15003376    -0.04100
C1533       C  0.64206888  0.76493116  0.15739529    -0.00300
C1534       C  0.62277614  0.76321933  0.13959151    -0.02900
C1535       C  0.65918270  0.75512064  0.08050048     0.36400
C1536       C  0.63556460  0.76826523  0.18338335     0.40000
C1537       C  0.69845071  0.75997581  0.11594316     0.39100
C1538       C  0.59699038  0.76450555  0.14743779     0.36000
C1539       C  0.60282245  0.71332455  0.10478763     0.36700
C1540       C  0.57527899  0.79964281  0.04912029     0.40000
N1541       N  0.71881379  0.76010974  0.10900392    -0.38100
N1542       N  0.66350778  0.75241122  0.05959323    -0.39700
N1543       N  0.63034104  0.77111503  0.20406881    -0.37400
N1544       N  0.57644311  0.76536465  0.15376408    -0.39800
N1545       N  0.62393197  0.82137246  0.08913455    -0.39600
N1546       N  0.56978200  0.81692914  0.03753840    -0.37200
N1547       N  0.55130230  0.69265928  0.06746293    -0.38300
N1548       N  0.60894548  0.69574648  0.11559636    -0.39900
C1549       C  0.91208331  0.59293297  0.22010778    -0.04900
C1550       C  0.90231234  0.60420517  0.24166181     0.09300
C1551       C  0.90984779  0.59594338  0.26541874    -0.02300
C1552       C  0.92751751  0.57676491  0.26760889    -0.00500
C1553       C  0.93799313  0.56614682  0.24604624    -0.04100
C1554       C  0.93005380  0.57402658  0.22229350     0.02900
C1555       C  0.88399826  0.62486720  0.23942416     0.09700
C1556       C  0.89933511  0.60720001  0.28755170     0.35600
C1557       C  0.94019135  0.56238888  0.20018069     0.39000
C1558       C  0.85837413  0.61959577  0.23907202    -0.04500
C1559       C  0.84098831  0.63914920  0.23840067     0.02600
C1560       C  0.84916903  0.66423098  0.23777942    -0.04100
C1561       C  0.87497868  0.66937588  0.23774505    -0.00300
C1562       C  0.89231330  0.64970502  0.23861007    -0.02900
C1563       C  0.84993503  0.59398116  0.24021173     0.36400
C1564       C  0.88379409  0.69483114  0.23674980     0.40000
C1565       C  0.81468857  0.63330906  0.24009880     0.39100
C1566       C  0.91878640  0.65489708  0.23920522     0.36000
C1567       C  0.90343579  0.60068192  0.19575041     0.36700
C1568       C  0.93485065  0.56777082  0.29197626     0.40000
N1569       N  0.79373428  0.62867093  0.24163049    -0.38100
N1570       N  0.84320817  0.57356685  0.24118666    -0.39700
N1571       N  0.89095363  0.71510619  0.23598122    -0.37400
N1572       N  0.93994178  0.65882341  0.23976895    -0.39800
N1573       N  0.89090143  0.61621935  0.30517017    -0.39600
N1574       N  0.94066734  0.56046171  0.31137900    -0.37200
N1575       N  0.94825150  0.55296207  0.18260027    -0.38300
N1576       N  0.89641410  0.60679316  0.17633052    -0.39900
C1577       C  0.76785005  0.85801667  0.38071168    -0.04900
C1578       C  0.76420799  0.88333626  0.37512799     0.09300
C1579       C  0.76179197  0.89081035  0.35008388    -0.02300
C1580       C  0.76218509  0.87297767  0.33074033    -0.00500
C1581       C  0.76460063  0.84729395  0.33625924    -0.04100
C1582       C  0.76784095  0.84005288  0.36153551     0.02900
C1583       C  0.76179107  0.90196827  0.39579993     0.09700
C1584       C  0.75840825  0.91692980  0.34428454     0.35600
C1585       C  0.76988461  0.81403955  0.36834158     0.39000
C1586       C  0.78185390  0.91774332  0.40201086    -0.04500
C1587       C  0.77927218  0.93551185  0.42118774     0.02600
C1588       C  0.75669700  0.93743934  0.43446908    -0.04100
C1589       C  0.73688565  0.92117150  0.42873500    -0.00300
C1590       C  0.73939910  0.90355455  0.40944426    -0.02900
C1591       C  0.80527478  0.91535905  0.38890372     0.36400
C1592       C  0.71383296  0.92270491  0.44262956     0.40000
C1593       C  0.79988402  0.95173760  0.42744851     0.39100
C1594       C  0.71895943  0.88692586  0.40363787     0.36000
C1595       C  0.77105847  0.85044162  0.40645006     0.36700
C1596       C  0.76044835  0.88129021  0.30513751     0.40000
N1597       N  0.81628231  0.96473634  0.43249769    -0.38100
N1598       N  0.82398180  0.91336068  0.37847563    -0.39700
N1599       N  0.69549241  0.92388677  0.45380756    -0.37400
N1600       N  0.70276831  0.87350261  0.39905270    -0.39800
N1601       N  0.75574755  0.93778497  0.33971186    -0.39600
N1602       N  0.75913347  0.88800885  0.28472782    -0.37200
N1603       N  0.77149887  0.79335900  0.37403538    -0.38300
N1604       N  0.77353585  0.84453793  0.42700898    -0.39900
C1605       C  0.74131405  0.60885938  0.14986678    -0.04900
C1606       C  0.73946670  0.61516428  0.12447272     0.09300
C1607       C  0.73638772  0.64028071  0.11770804    -0.02300
C1608       C  0.73692237  0.65917521  0.13601283    -0.00500
C1609       C  0.74055671  0.65315143  0.16154154    -0.04100
C1610       C  0.74190372  0.62766566  0.16831028     0.02900
C1611       C  0.74261927  0.59559141  0.10471346     0.09700
C1612       C  0.73308884  0.64667444  0.09168085     0.35600
C1613       C  0.74340850  0.62055307  0.19427544     0.39000
C1614       C  0.72216226  0.58140754  0.09628330    -0.04500
C1615       C  0.72545217  0.56317230  0.07757573     0.02600
C1616       C  0.74917240  0.55922551  0.06696769    -0.04100
C1617       C  0.76958848  0.57340147  0.07544517    -0.00300
C1618       C  0.76634716  0.59143454  0.09424737    -0.02900
C1619       C  0.69772177  0.58581811  0.10672271     0.36400
C1620       C  0.79399199  0.56934298  0.06473328     0.40000
C1621       C  0.70445693  0.54851626  0.06912369     0.39100
C1622       C  0.78746533  0.60585187  0.10283984     0.36000
C1623       C  0.74275259  0.58287510  0.15692265     0.36700
C1624       C  0.73486069  0.68486201  0.12809174     0.40000
N1625       N  0.68770489  0.53678807  0.06238826    -0.38100
N1626       N  0.67822508  0.58942492  0.11507002    -0.39700
N1627       N  0.81341892  0.56597630  0.05613226    -0.37400
N1628       N  0.80428042  0.61739888  0.10972228    -0.39800
N1629       N  0.73037791  0.65172944  0.07092644    -0.39600
N1630       N  0.73314392  0.70531479  0.12165387    -0.37200
N1631       N  0.74446985  0.61465654  0.21495154    -0.38300
N1632       N  0.74369990  0.56209247  0.16240953    -0.39900
C1633       C  0.84684133  0.73485746  0.39229653    -0.04900
C1634       C  0.87242382  0.73240354  0.38709973     0.09300
C1635       C  0.88048214  0.73166090  0.36217411    -0.02300
C1636       C  0.86323752  0.73408957  0.34248364    -0.00500
C1637       C  0.83741359  0.73649089  0.34750208    -0.04100
C1638       C  0.82935507  0.73621788  0.37263385     0.02900
C1639       C  0.89143764  0.73217851  0.40757681     0.09700
C1640       C  0.90687144  0.72937916  0.35692117     0.35600
C1641       C  0.80301505  0.73676166  0.37838518     0.39000
C1642       C  0.89891529  0.70958016  0.41869879    -0.04500
C1643       C  0.91904428  0.70919725  0.43567058     0.02600
C1644       C  0.93219531  0.73129845  0.44108750    -0.04100
C1645       C  0.92467300  0.75384206  0.42993014    -0.00300
C1646       C  0.90401888  0.75437231  0.41374578    -0.02900
C1647       C  0.88624290  0.68668808  0.41219941     0.36400
C1648       C  0.93855264  0.77643232  0.43482372     0.40000
C1649       C  0.92658023  0.68602820  0.44722135     0.39100
C1650       C  0.89578903  0.77774919  0.40312474     0.36000
C1651       C  0.83861479  0.73701186  0.41788108     0.36700
C1652       C  0.87253303  0.73557816  0.31720008     0.40000
N1653       N  0.93265309  0.66754361  0.45642446    -0.38100
N1654       N  0.87616105  0.66841081  0.40695130    -0.39700
N1655       N  0.94980143  0.79436774  0.43866843    -0.37400
N1656       N  0.88904835  0.79637068  0.39470721    -0.39800
N1657       N  0.92797040  0.72766116  0.35305911    -0.39600
N1658       N  0.88019280  0.73687197  0.29713124    -0.37200
N1659       N  0.78198922  0.73696925  0.38295901    -0.38300
N1660       N  0.83198082  0.73906312  0.43824999    -0.39900
C1661       C  0.41910371  0.89441430  0.25251450    -0.04900
C1662       C  0.40121451  0.89562709  0.27169294     0.09300
C1663       C  0.40260036  0.91500675  0.28937520    -0.02300
C1664       C  0.42117491  0.93352862  0.28735022    -0.00500
C1665       C  0.43837851  0.93295624  0.26745249    -0.04100
C1666       C  0.43746817  0.91304121  0.25028923     0.02900
C1667       C  0.37958355  0.87788646  0.27158855     0.09700
C1668       C  0.38446176  0.91622322  0.30926275     0.35600
C1669       C  0.45503310  0.91211278  0.22984839     0.39000
C1670       C  0.37893101  0.85705242  0.28760705    -0.04500
C1671       C  0.35904132  0.83979774  0.28613172     0.02600
C1672       C  0.33999158  0.84303167  0.26825147    -0.04100
C1673       C  0.34020089  0.86446376  0.25301804    -0.00300
C1674       C  0.35982712  0.88177958  0.25471694    -0.02900
C1675       C  0.39887427  0.85330304  0.30538689     0.36400
C1676       C  0.31960981  0.86922422  0.23619006     0.40000
C1677       C  0.35835708  0.81860732  0.30276435     0.39100
C1678       C  0.35966855  0.90382022  0.23915197     0.36000
C1679       C  0.41820621  0.87418919  0.23468682     0.36700
C1680       C  0.42228101  0.95350414  0.30543719     0.40000
N1681       N  0.35776938  0.80178634  0.31617590    -0.38100
N1682       N  0.41479976  0.85041145  0.31960354    -0.39700
N1683       N  0.30305325  0.87302644  0.22294612    -0.37400
N1684       N  0.35960448  0.92144279  0.22680382    -0.39800
N1685       N  0.36999727  0.91713877  0.32515751    -0.39600
N1686       N  0.42308531  0.96956180  0.31974667    -0.37200
N1687       N  0.46915084  0.91141202  0.21363338    -0.38300
N1688       N  0.41742981  0.85804673  0.22047437    -0.39900
C1689       C  0.61956899  0.14475017  0.23791531    -0.04900
C1690       C  0.62423671  0.11899064  0.23698356     0.09300
C1691       C  0.64899814  0.11039293  0.23526248    -0.02300
C1692       C  0.66903161  0.12746165  0.23479611    -0.00500
C1693       C  0.66441796  0.15332514  0.23614131    -0.04100
C1694       C  0.63951115  0.16180177  0.23790403     0.02900
C1695       C  0.60313031  0.10088252  0.23946732     0.09700
C1696       C  0.65377379  0.08387520  0.23446227     0.35600
C1697       C  0.63441241  0.18796900  0.24201299     0.39000
C1698       C  0.58949745  0.09322886  0.21835023    -0.04500
C1699       C  0.56976982  0.07604478  0.22084346     0.02600
C1700       C  0.56395763  0.06591134  0.24437116    -0.04100
C1701       C  0.57743314  0.07379856  0.26553365    -0.00300
C1702       C  0.59676745  0.09140550  0.26311752    -0.02900
C1703       C  0.59618842  0.10264477  0.19400022     0.36400
C1704       C  0.57158224  0.06351628  0.28975746     0.40000
C1705       C  0.55565093  0.06840284  0.19916157     0.39100
C1706       C  0.61034857  0.09969212  0.28492986     0.36000
C1707       C  0.59418041  0.15368971  0.23974697     0.36700
C1708       C  0.69434632  0.11834524  0.23310644     0.40000
N1709       N  0.54425027  0.06230134  0.18193638    -0.38100
N1710       N  0.60165241  0.11007112  0.17455699    -0.39700
N1711       N  0.56698848  0.05525252  0.30908874    -0.37400
N1712       N  0.62125583  0.10641189  0.30224632    -0.39800
N1713       N  0.65741341  0.06267827  0.23390623    -0.39600
N1714       N  0.71453079  0.11098761  0.23181723    -0.37200
N1715       N  0.63054884  0.20879187  0.24575212    -0.38300
N1716       N  0.57394758  0.16087980  0.24117439    -0.39900
C1717       C  0.64705749  0.88308390  0.25747859    -0.04900
C1718       C  0.62156120  0.87715137  0.25867363     0.09300
C1719       C  0.61413758  0.85199186  0.25972126    -0.02300
C1720       C  0.63214790  0.83282918  0.25955639    -0.00500
C1721       C  0.65775178  0.83870139  0.25795835    -0.04100
C1722       C  0.66506300  0.86402365  0.25697237     0.02900
C1723       C  0.60256152  0.89755148  0.25849479     0.09700
C1724       C  0.58788571  0.84588826  0.26071517     0.35600
C1725       C  0.69106746  0.87062803  0.25405618     0.39000
C1726       C  0.59022190  0.90393094  0.23617900    -0.04500
C1727       C  0.57281991  0.92356459  0.23587361     0.02600
C1728       C  0.56720430  0.93653469  0.25800175    -0.04100
C1729       C  0.57957375  0.93020782  0.28029738    -0.00300
C1730       C  0.59740592  0.91096442  0.28048126    -0.02900
C1731       C  0.59542981  0.89020831  0.21355525     0.36400
C1732       C  0.57344804  0.94315945  0.30313750     0.40000
C1733       C  0.56065430  0.93050325  0.21279334     0.39100
C1734       C  0.61048840  0.90490823  0.30329097     0.36000
C1735       C  0.65470883  0.90892769  0.25614439     0.36700
C1736       C  0.62430339  0.80712405  0.26164036     0.40000
N1737       N  0.55103031  0.93618755  0.19438055    -0.38100
N1738       N  0.59949707  0.87912862  0.19556016    -0.39700
N1739       N  0.56830254  0.95337814  0.32136139    -0.37400
N1740       N  0.62107831  0.90015753  0.32143483    -0.39800
N1741       N  0.56691128  0.84110295  0.26134429    -0.39600
N1742       N  0.61799337  0.78663348  0.26344568    -0.37200
N1743       N  0.71178138  0.87591104  0.25160471    -0.38300
N1744       N  0.66075119  0.92955100  0.25511253    -0.39900
C1745       C  0.63750551  0.27839032  0.87980123    -0.04900
C1746       C  0.61235523  0.27626781  0.87268677     0.09300
C1747       C  0.60612436  0.27549661  0.84716717    -0.02300
C1748       C  0.62506442  0.27583850  0.82889764    -0.00500
C1749       C  0.65036102  0.27643940  0.83606302    -0.04100
C1750       C  0.65642956  0.27797509  0.86164590     0.02900
C1751       C  0.59267547  0.27388165  0.89230820     0.09700
C1752       C  0.58021876  0.27407530  0.83980570     0.35600
C1753       C  0.68219682  0.27746984  0.86951607     0.39000
C1754       C  0.57981341  0.29509412  0.90085085    -0.04500
C1755       C  0.56266631  0.29304236  0.92059913     0.02600
C1756       C  0.55796325  0.26970510  0.93165378    -0.04100
C1757       C  0.57062479  0.24843796  0.92299835    -0.00300
C1758       C  0.58806934  0.25054636  0.90350732    -0.02900
C1759       C  0.58469029  0.31912080  0.88967862     0.36400
C1760       C  0.56588441  0.22449142  0.93444264     0.40000
C1761       C  0.55037789  0.31504892  0.93017735     0.39100
C1762       C  0.60174819  0.22881339  0.89531476     0.36000
C1763       C  0.64385179  0.28068626  0.90595752     0.36700
C1764       C  0.61855526  0.27599583  0.80273157     0.40000
N1765       N  0.54063958  0.33253232  0.93807025    -0.38100
N1766       N  0.58856642  0.33830611  0.88075181    -0.39700
N1767       N  0.56203697  0.20542642  0.94364317    -0.37400
N1768       N  0.61280028  0.21151675  0.88887405    -0.39800
N1769       N  0.55950607  0.27297374  0.83402484    -0.39600
N1770       N  0.61336808  0.27638641  0.78183371    -0.37200
N1771       N  0.70269203  0.27674174  0.87601421    -0.38300
N1772       N  0.64875088  0.28267210  0.92683568    -0.39900
C1773       C  0.88276218  0.35255933  0.73860717    -0.04900
C1774       C  0.87780354  0.37725259  0.73126245     0.09300
C1775       C  0.85349287  0.38373260  0.72355239    -0.02300
C1776       C  0.83428217  0.36567240  0.72336609    -0.00500
C1777       C  0.83913275  0.34114656  0.73138902    -0.04100
C1778       C  0.86343059  0.33477111  0.73924057     0.02900
C1779       C  0.89822370  0.39642102  0.73207932     0.09700
C1780       C  0.84830357  0.40906330  0.71596672     0.35600
C1781       C  0.86841972  0.31000095  0.74867859     0.39000
C1782       C  0.91218131  0.40190534  0.71052446    -0.04500
C1783       C  0.93148970  0.41974989  0.71137797     0.02600
C1784       C  0.93750200  0.43178378  0.73395062    -0.04100
C1785       C  0.92380221  0.42601157  0.75562325    -0.00300
C1786       C  0.90401801  0.40869763  0.75460451    -0.02900
C1787       C  0.90647713  0.38927647  0.68740150     0.36400
C1788       C  0.92998016  0.43810983  0.77893793     0.40000
C1789       C  0.94468676  0.42642806  0.68885988     0.39100
C1790       C  0.88917259  0.40391633  0.77659180     0.36000
C1791       C  0.90792050  0.34543836  0.74527390     0.36700
C1792       C  0.80948768  0.37234520  0.71515600     0.40000
N1793       N  0.95517208  0.43200573  0.67092475    -0.38100
N1794       N  0.90188033  0.37914545  0.66897005    -0.39700
N1795       N  0.93499461  0.44771858  0.79754571    -0.37400
N1796       N  0.87716638  0.40023051  0.79405942    -0.39800
N1797       N  0.84428696  0.42932470  0.70993764    -0.39600
N1798       N  0.78970026  0.37766039  0.70853355    -0.37200
N1799       N  0.87236216  0.29032280  0.75644591    -0.38300
N1800       N  0.92807325  0.33980610  0.75034254    -0.39900
C1801       C  0.71721341  0.12001920  0.64312652    -0.04900
C1802       C  0.72503760  0.12508920  0.61860773     0.09300
C1803       C  0.73106306  0.14976391  0.61189002    -0.02300
C1804       C  0.73010383  0.16906176  0.62977699    -0.00500
C1805       C  0.72323382  0.16383235  0.65462557    -0.04100
C1806       C  0.71645063  0.13921360  0.66105454     0.02900
C1807       C  0.72803788  0.10422271  0.60020494     0.09700
C1808       C  0.73861194  0.15515074  0.58657371     0.35600
C1809       C  0.71021467  0.13317209  0.68656299     0.39000
C1810       C  0.70711956  0.09403338  0.58794670    -0.04500
C1811       C  0.71011414  0.07451029  0.57059590     0.02600
C1812       C  0.73401559  0.06491641  0.56547137    -0.04100
C1813       C  0.75488388  0.07485271  0.57796677    -0.00300
C1814       C  0.75192661  0.09445956  0.59519690    -0.02900
C1815       C  0.68254030  0.10385298  0.59302090     0.36400
C1816       C  0.77946177  0.06509499  0.57270972     0.40000
C1817       C  0.68865291  0.06437622  0.55775846     0.39100
C1818       C  0.77350872  0.10473333  0.60772292     0.36000
C1819       C  0.71068564  0.09480051  0.65012665     0.36700
C1820       C  0.73598994  0.19434708  0.62253792     0.40000
N1821       N  0.67160249  0.05619067  0.54745941    -0.38100
N1822       N  0.66291385  0.11165813  0.59712342    -0.39700
N1823       N  0.79903621  0.05728116  0.56838270    -0.37400
N1824       N  0.79072079  0.11303279  0.61765468    -0.39800
N1825       N  0.74469906  0.15930066  0.56635509    -0.39600
N1826       N  0.74062348  0.21453200  0.61670682    -0.37200
N1827       N  0.70536003  0.12826703  0.70692728    -0.38300
N1828       N  0.70539075  0.07471241  0.65572136    -0.39900
C1829       C  0.79350223  0.41041806  0.90292022    -0.04900
C1830       C  0.77094435  0.39903982  0.89562397     0.09300
C1831       C  0.74825471  0.40766088  0.90564379    -0.02300
C1832       C  0.74812353  0.42744639  0.92284410    -0.00500
C1833       C  0.77070115  0.43845001  0.93057323    -0.04100
C1834       C  0.79338352  0.42997285  0.92045048     0.02900
C1835       C  0.77089790  0.37836917  0.87690202     0.09700
C1836       C  0.72503813  0.39589685  0.89849238     0.35600
C1837       C  0.81659767  0.44120420  0.92834386     0.39000
C1838       C  0.76596303  0.35363442  0.88433453    -0.04500
C1839       C  0.76428280  0.33452010  0.86638654     0.02600
C1840       C  0.76780259  0.33999113  0.84096599    -0.04100
C1841       C  0.77356723  0.36458102  0.83364609    -0.00300
C1842       C  0.77495221  0.38369196  0.85151669    -0.02900
C1843       C  0.76253270  0.34791642  0.91047198     0.36400
C1844       C  0.77708048  0.37046859  0.80750931     0.40000
C1845       C  0.75973161  0.30911736  0.87412640     0.39100
C1846       C  0.77995182  0.40901233  0.84367954     0.36000
C1847       C  0.81684607  0.40175239  0.89257894     0.36700
C1848       C  0.72477198  0.43618070  0.93311222     0.40000
N1849       N  0.75641876  0.28880291  0.88037304    -0.38100
N1850       N  0.75971943  0.34339987  0.93132838    -0.39700
N1851       N  0.77988304  0.37503077  0.78665738    -0.37400
N1852       N  0.78403799  0.42918001  0.83740375    -0.39800
N1853       N  0.70658226  0.38628809  0.89296104    -0.39600
N1854       N  0.70617858  0.44316456  0.94137268    -0.37200
N1855       N  0.83512523  0.45020363  0.93461036    -0.38300
N1856       N  0.83541126  0.39487699  0.88415884    -0.39900
C1857       C  0.63860139  0.11987065  0.76401067    -0.04900
C1858       C  0.61342336  0.12669921  0.76716532     0.09300
C1859       C  0.60731782  0.15183192  0.77157998    -0.02300
C1860       C  0.62604180  0.17021116  0.77117967    -0.00500
C1861       C  0.65111905  0.16351396  0.76688754    -0.04100
C1862       C  0.65742367  0.13818696  0.76429435     0.02900
C1863       C  0.59332618  0.10742357  0.76549057     0.09700
C1864       C  0.58172414  0.15877857  0.77649390     0.35600
C1865       C  0.68336682  0.13092169  0.76337355     0.39000
C1866       C  0.58224880  0.09783285  0.78728123    -0.04500
C1867       C  0.56408266  0.07893051  0.78561768     0.02600
C1868       C  0.55663603  0.06977041  0.76213558    -0.04100
C1869       C  0.56693899  0.08012058  0.74033213    -0.00300
C1870       C  0.58541919  0.09866725  0.74199502    -0.02900
C1871       C  0.58966619  0.10741182  0.81139149     0.36400
C1872       C  0.55828017  0.07175052  0.71617699     0.40000
C1873       C  0.55317371  0.06872521  0.80804287     0.39100
C1874       C  0.59641842  0.10869529  0.71951268     0.36000
C1875       C  0.64509471  0.09392863  0.76063851     0.36700
C1876       C  0.61933976  0.19612334  0.77452771     0.40000
N1877       N  0.54450048  0.06058234  0.82596821    -0.38100
N1878       N  0.59551688  0.11530089  0.83055600    -0.39700
N1879       N  0.55109258  0.06515971  0.69697549    -0.37400
N1880       N  0.60527971  0.11660514  0.70157374    -0.39800
N1881       N  0.56136502  0.16429850  0.78074004    -0.39600
N1882       N  0.61400443  0.21678471  0.77723942    -0.37200
N1883       N  0.70410370  0.12516053  0.76317847    -0.38300
N1884       N  0.65020079  0.07320837  0.75791295    -0.39900
C1885       C  0.39460406  0.26743009  0.15685418    -0.04900
C1886       C  0.38716387  0.26800009  0.13169548     0.09300
C1887       C  0.36169620  0.26768744  0.12563204    -0.02300
C1888       C  0.34364037  0.26645601  0.14456643    -0.00500
C1889       C  0.35088002  0.26575485  0.16999533    -0.04100
C1890       C  0.37657398  0.26633014  0.17597086     0.02900
C1891       C  0.40599840  0.26842020  0.11124147     0.09700
C1892       C  0.35412967  0.26812397  0.09968377     0.35600
C1893       C  0.38458695  0.26608894  0.20173522     0.39000
C1894       C  0.41289840  0.24606268  0.09935241    -0.04500
C1895       C  0.42854829  0.24663157  0.07835779     0.02600
C1896       C  0.43808418  0.26948134  0.06968427    -0.04100
C1897       C  0.43200812  0.29174071  0.08217718    -0.00300
C1898       C  0.41564225  0.29125812  0.10265246    -0.02900
C1899       C  0.40407406  0.22246783  0.10893765     0.36400
C1900       C  0.44291619  0.31503984  0.07412449     0.40000
C1901       C  0.43529507  0.22370011  0.06586727     0.39100
C1902       C  0.40855717  0.31422865  0.11483804     0.36000
C1903       C  0.42088799  0.26765643  0.16295098     0.36700
C1904       C  0.31765051  0.26449028  0.13752397     0.40000
N1905       N  0.44082761  0.20548790  0.05583858    -0.38100
N1906       N  0.39720896  0.20361666  0.11670212    -0.39700
N1907       N  0.45178726  0.33357651  0.06775839    -0.37400
N1908       N  0.40284165  0.33253702  0.12458276    -0.39800
N1909       N  0.34823902  0.26840649  0.07896914    -0.39600
N1910       N  0.29696185  0.26283656  0.13180994    -0.37200
N1911       N  0.39108252  0.26588194  0.22227054    -0.38300
N1912       N  0.44188968  0.26782345  0.16769555    -0.39900
C1913       C  0.09765269  0.41484342  0.28653854    -0.04900
C1914       C  0.10323703  0.39981357  0.26573347     0.09300
C1915       C  0.08958903  0.40284379  0.24346147    -0.02300
C1916       C  0.07059219  0.42083901  0.24195445    -0.00500
C1917       C  0.06542009  0.43626225  0.26254005    -0.04100
C1918       C  0.07895881  0.43320284  0.28485662     0.02900
C1919       C  0.12389339  0.38111940  0.26686559     0.09700
C1920       C  0.09547749  0.38770886  0.22192433     0.35600
C1921       C  0.07378109  0.44918967  0.30593978     0.39000
C1922       C  0.11841132  0.35554920  0.26845017    -0.04500
C1923       C  0.13768242  0.33778175  0.26711734     0.02600
C1924       C  0.16285097  0.34544969  0.26462010    -0.04100
C1925       C  0.16825456  0.37121480  0.26362604    -0.00300
C1926       C  0.14885290  0.38890340  0.26468396    -0.02900
C1927       C  0.09273337  0.34752708  0.27075625     0.36400
C1928       C  0.19376378  0.37971365  0.26164498     0.40000
C1929       C  0.13120019  0.31159153  0.26672597     0.39100
C1930       C  0.15445905  0.41522819  0.26293355     0.36000
C1931       C  0.11123005  0.41144037  0.30961048     0.36700
C1932       C  0.05661781  0.42385737  0.21905405     0.40000
N1933       N  0.12594020  0.29073601  0.26627055    -0.38100
N1934       N  0.07224229  0.34117061  0.27246355    -0.39700
N1935       N  0.21407666  0.38663147  0.26004536    -0.37400
N1936       N  0.15878190  0.43626035  0.26158698    -0.39800
N1937       N  0.10025489  0.37557652  0.20480709    -0.39600
N1938       N  0.04542415  0.42628269  0.20081100    -0.37200
N1939       N  0.06966463  0.46207224  0.32267760    -0.38300
N1940       N  0.12208658  0.40872769  0.32801710    -0.39900
C1941       C  0.23558847  0.09172842  0.41002493    -0.04900
C1942       C  0.25854063  0.10202744  0.40249944     0.09300
C1943       C  0.28093924  0.09221774  0.41206062    -0.02300
C1944       C  0.28040664  0.07268085  0.42956020    -0.00500
C1945       C  0.25746501  0.06270364  0.43747006    -0.04100
C1946       C  0.23506201  0.07204773  0.42740339     0.02900
C1947       C  0.25926799  0.12312586  0.38430632     0.09700
C1948       C  0.30452971  0.10226315  0.40374670     0.35600
C1949       C  0.21150535  0.06144999  0.43512876     0.39000
C1950       C  0.25991267  0.14793422  0.39283073    -0.04500
C1951       C  0.26124911  0.16781857  0.37569658     0.02600
C1952       C  0.26155852  0.16304791  0.34981590    -0.04100
C1953       C  0.26068733  0.13804974  0.34136388    -0.00300
C1954       C  0.25989229  0.11824464  0.35856547    -0.02900
C1955       C  0.25912096  0.15293307  0.41932370     0.36400
C1956       C  0.25923757  0.13255783  0.31494930     0.40000
C1957       C  0.26285704  0.19315041  0.38477645     0.39100
C1958       C  0.25957072  0.09272249  0.34981540     0.36000
C1959       C  0.21254673  0.10146738  0.39992456     0.36700
C1960       C  0.30345478  0.06272780  0.43941802     0.40000
N1961       N  0.26424940  0.21336182  0.39202369    -0.38100
N1962       N  0.25843457  0.15686006  0.44047740    -0.39700
N1963       N  0.25793982  0.12816454  0.29390698    -0.37400
N1964       N  0.25938833  0.07235196  0.34288772    -0.39800
N1965       N  0.32328339  0.11033315  0.39696825    -0.39600
N1966       N  0.32183449  0.05472174  0.44727087    -0.37200
N1967       N  0.19277501  0.05286363  0.44132192    -0.38300
N1968       N  0.19414370  0.10921409  0.39185990    -0.39900
C1969       C  0.21937663  0.40339743  0.08915481    -0.04900
C1970       C  0.24121708  0.39255542  0.09888299     0.09300
C1971       C  0.26468984  0.40163750  0.09140415    -0.02300
C1972       C  0.26630715  0.42165790  0.07452923    -0.00500
C1973       C  0.24445903  0.43247335  0.06475349    -0.04100
C1974       C  0.22099205  0.42325435  0.07207254     0.02900
C1975       C  0.23962221  0.37267812  0.11833569     0.09700
C1976       C  0.28716478  0.39034945  0.10117634     0.35600
C1977       C  0.19853462  0.43433608  0.06203828     0.39000
C1978       C  0.24076171  0.34733145  0.11173800    -0.04500
C1979       C  0.24132081  0.32879750  0.13041043     0.02600
C1980       C  0.24042132  0.33552592  0.15591575    -0.04100
C1981       C  0.23871962  0.36107097  0.16229853    -0.00300
C1982       C  0.23812766  0.37944207  0.14359313    -0.02900
C1983       C  0.24141923  0.34042342  0.08566240     0.36400
C1984       C  0.23936039  0.36880706  0.18814725     0.40000
C1985       C  0.24276983  0.30285757  0.12321502     0.39100
C1986       C  0.23653277  0.40553039  0.15030929     0.36000
C1987       C  0.19527539  0.39411894  0.09685625     0.36700
C1988       C  0.29042369  0.43112493  0.06707725     0.40000
N1989       N  0.24397140  0.28221108  0.11728014    -0.38100
N1990       N  0.24182386  0.33499109  0.06483366    -0.39700
N1991       N  0.24006043  0.37502848  0.20874055    -0.37400
N1992       N  0.23519889  0.42635268  0.15555306    -0.39800
N1993       N  0.30505712  0.38123907  0.10895398    -0.39600
N1994       N  0.30964030  0.43874071  0.06111137    -0.37200
N1995       N  0.18066125  0.44328224  0.05403020    -0.38300
N1996       N  0.17607064  0.38666941  0.10306205    -0.39900
C1997       C  0.38466280  0.14340294  0.24295571    -0.04900
C1998       C  0.37727374  0.11834434  0.24099148     0.09300
C1999       C  0.35179319  0.11237033  0.23934209    -0.02300
C2000       C  0.33368022  0.13134692  0.24018543    -0.00500
C2001       C  0.34092210  0.15647210  0.24314087    -0.04100
C2002       C  0.36662763  0.16243320  0.24402862     0.02900
C2003       C  0.39636084  0.09815120  0.24230877     0.09700
C2004       C  0.34423987  0.08655577  0.23751825     0.35600
C2005       C  0.37471084  0.18797319  0.24733149     0.39000
C2006       C  0.40354512  0.08858658  0.26568342    -0.04500
C2007       C  0.42229942  0.07036104  0.26726500     0.02600
C2008       C  0.43353645  0.06112361  0.24543311    -0.04100
C2009       C  0.42584149  0.07014753  0.22198463    -0.00300
C2010       C  0.40763846  0.08900344  0.22045370    -0.02900
C2011       C  0.39175937  0.09777868  0.28812364     0.36400
C2012       C  0.43653037  0.05983361  0.19949334     0.40000
C2013       C  0.43040142  0.06134973  0.29137464     0.39100
C2014       C  0.40086484  0.09940653  0.19650301     0.36000
C2015       C  0.41091426  0.14944417  0.24481523     0.36700
C2016       C  0.30758562  0.12499269  0.23760345     0.40000
N2017       N  0.43701391  0.05418892  0.31057570    -0.38100
N2018       N  0.38225372  0.10514766  0.30596027    -0.39700
N2019       N  0.44491255  0.05142080  0.18155168    -0.37400
N2020       N  0.39560528  0.10788407  0.17741932    -0.39800
N2021       N  0.33825158  0.06593361  0.23620315    -0.39600
N2022       N  0.28675986  0.11998724  0.23545101    -0.37200
N2023       N  0.38127685  0.20830018  0.24995233    -0.38300
N2024       N  0.43186471  0.15413544  0.24639182    -0.39900
C2025       C  0.90793491  0.24584376  0.40808494    -0.04900
C2026       C  0.89933990  0.22388150  0.39660019     0.09300
C2027       C  0.90824185  0.20056131  0.40471426    -0.02300
C2028       C  0.92589293  0.19924814  0.42412853    -0.00500
C2029       C  0.93455783  0.22124999  0.43552607    -0.04100
C2030       C  0.92559823  0.24454449  0.42739570     0.02900
C2031       C  0.88068968  0.22557177  0.37604101     0.09700
C2032       C  0.89913980  0.17799522  0.39310868     0.35600
C2033       C  0.93483511  0.26720279  0.43876120     0.39000
C2034       C  0.88862314  0.22748874  0.35111769    -0.04500
C2035       C  0.87109508  0.23112351  0.33186624     0.02600
C2036       C  0.84547283  0.23314636  0.33750810    -0.04100
C2037       C  0.83762357  0.23085923  0.36262106    -0.00300
C2038       C  0.85517959  0.22698525  0.38171432    -0.02900
C2039       C  0.91495676  0.22626562  0.34544624     0.36400
C2040       C  0.81160732  0.23379922  0.36920644     0.40000
C2041       C  0.87947951  0.23235829  0.30626847     0.39100
C2042       C  0.84710370  0.22523280  0.40741433     0.36000
C2043       C  0.89847137  0.26978045  0.39999956     0.36700
C2044       C  0.93541304  0.17537148  0.43224034     0.40000
N2045       N  0.88621832  0.23328709  0.28585203    -0.38100
N2046       N  0.93600243  0.22535848  0.34106321    -0.39700
N2047       N  0.79088791  0.23618976  0.37449210    -0.37400
N2048       N  0.84068423  0.22392001  0.42791224    -0.39800
N2049       N  0.89182711  0.15999560  0.38384685    -0.39600
N2050       N  0.94310397  0.15635503  0.43874527    -0.37200
N2051       N  0.94232170  0.28525718  0.44777203    -0.38300
N2052       N  0.89078596  0.28880950  0.39352394    -0.39900
C2053       C  0.10445030  0.21007837  0.58007092    -0.04900
C2054       C  0.09867386  0.21686304  0.60468405     0.09300
C2055       C  0.07359239  0.21742609  0.61212464    -0.02300
C2056       C  0.05458140  0.21380265  0.59438165    -0.00500
C2057       C  0.06047571  0.21380517  0.56856950    -0.04100
C2058       C  0.08515716  0.20638559  0.56270861     0.02900
C2059       C  0.11890812  0.22073974  0.62336048     0.09700
C2060       C  0.06735779  0.22162478  0.63802597     0.35600
C2061       C  0.09026458  0.19216176  0.54034069     0.39000
C2062       C  0.12739845  0.24489908  0.62865741    -0.04500
C2063       C  0.14694089  0.24859829  0.64581466     0.02600
C2064       C  0.15724708  0.22812139  0.65907622    -0.04100
C2065       C  0.14815534  0.20383657  0.65386969    -0.00300
C2066       C  0.12948738  0.20022493  0.63573623    -0.02900
C2067       C  0.11602137  0.26598859  0.61621122     0.36400
C2068       C  0.15752896  0.18236599  0.66726954     0.40000
C2069       C  0.15716079  0.27343247  0.64852693     0.39100
C2070       C  0.12111586  0.17529781  0.62962730     0.36000
C2071       C  0.13016242  0.20751932  0.57241750     0.36700
C2072       C  0.03076035  0.20478993  0.60318613     0.40000
N2073       N  0.16536312  0.29323910  0.65043186    -0.38100
N2074       N  0.10678088  0.28276331  0.60638318    -0.39700
N2075       N  0.16491795  0.16512593  0.67783539    -0.37400
N2076       N  0.11449582  0.15546757  0.62452698    -0.39800
N2077       N  0.06243868  0.22522467  0.65866464    -0.39600
N2078       N  0.01198673  0.19729740  0.61057174    -0.37200
N2079       N  0.09434841  0.18066001  0.52260986    -0.38300
N2080       N  0.15068431  0.20581772  0.56618864    -0.39900
C2081       C  0.91436073  0.20320190  0.60359993    -0.04900
C2082       C  0.89621700  0.22213985  0.60445064     0.09300
C2083       C  0.89592396  0.24062964  0.58579598    -0.02300
C2084       C  0.91406224  0.24062298  0.56682224    -0.00500
C2085       C  0.93220332  0.22162286  0.56586215    -0.04100
C2086       C  0.93231160  0.20296968  0.58443612     0.02900
C2087       C  0.87728627  0.22275655  0.62496292     0.09700
C2088       C  0.87654994  0.25938841  0.58590962     0.35600
C2089       C  0.95087807  0.18341747  0.58375769     0.39000
C2090       C  0.88003893  0.23949363  0.64494858    -0.04500
C2091       C  0.86144180  0.24136742  0.66340462     0.02600
C2092       C  0.83929240  0.22699934  0.66170719    -0.04100
C2093       C  0.83705496  0.20962697  0.64180381    -0.00300
C2094       C  0.85609524  0.20740543  0.62381829    -0.02900
C2095       C  0.90194468  0.25521510  0.64622995     0.36400
C2096       C  0.81475287  0.19472193  0.63872660     0.40000
C2097       C  0.86545881  0.25814539  0.68415160     0.39100
C2098       C  0.85362177  0.18972268  0.60356414     0.36000
C2099       C  0.91427571  0.18373448  0.62226774     0.36700
C2100       C  0.91431961  0.26041867  0.54852016     0.40000
N2101       N  0.86873318  0.27162185  0.70060815    -0.38100
N2102       N  0.91931775  0.26788313  0.64717448    -0.39700
N2103       N  0.79705651  0.18275463  0.63605045    -0.37400
N2104       N  0.85180593  0.17556823  0.58744973    -0.39800
N2105       N  0.86093742  0.27419618  0.58601199    -0.39600
N2106       N  0.91452953  0.27619761  0.53388869    -0.37200
N2107       N  0.96574867  0.16787175  0.58326230    -0.38300
N2108       N  0.91403624  0.16808257  0.63703776    -0.39900
C2109       C  0.09065606  0.25670438  0.41114286    -0.04900
C2110       C  0.10139372  0.23456876  0.40192129     0.09300
C2111       C  0.09381038  0.21146848  0.41181875    -0.02300
C2112       C  0.07552851  0.21049856  0.43063762    -0.00500
C2113       C  0.06439877  0.23259444  0.43947382    -0.04100
C2114       C  0.07214284  0.25571451  0.42976960     0.02900
C2115       C  0.12020519  0.23553288  0.38126146     0.09700
C2116       C  0.10445932  0.18865584  0.40219478     0.35600
C2117       C  0.06090553  0.27843475  0.43890414     0.39000
C2118       C  0.14585606  0.23486031  0.38663528    -0.04500
C2119       C  0.16352194  0.23608798  0.36719754     0.02600
C2120       C  0.15570325  0.23787524  0.34194754    -0.04100
C2121       C  0.12986372  0.23811878  0.33671796    -0.00300
C2122       C  0.11228948  0.23711960  0.35627666    -0.02900
C2123       C  0.15405837  0.23346845  0.41233801     0.36400
C2124       C  0.12118031  0.23861747  0.31119350     0.40000
C2125       C  0.18976779  0.23660181  0.37354233     0.39100
C2126       C  0.08588012  0.23787200  0.35080574     0.36000
C2127       C  0.09851134  0.28047946  0.40119011     0.36700
C2128       C  0.06786277  0.18671312  0.44076624     0.40000
N2129       N  0.21067328  0.23702044  0.37868435    -0.38100
N2130       N  0.16060313  0.23240011  0.43283232    -0.39700
N2131       N  0.11408359  0.23884254  0.29086284    -0.37400
N2132       N  0.06476171  0.23857415  0.34668608    -0.39800
N2133       N  0.11290244  0.17045601  0.39443041    -0.39600
N2134       N  0.06168414  0.16778466  0.44891437    -0.37200
N2135       N  0.05192341  0.29654084  0.44627072    -0.38300
N2136       N  0.10479909  0.29942046  0.39315948    -0.39900
loop_ 
_geom_bond_atom_site_label_1 
_geom_bond_atom_site_label_2 
_geom_bond_distance 
_geom_bond_site_symmetry_2 
_ccdc_geom_bond_type 
N1            C6   1.355       .  A
N1            C5   1.353   1_655  A
N1           H33   1.044       .  S
N2            C9   1.351       .  A
N2           C10   1.353       .  A
N3            C8   1.354       .  A
N3            C7   1.355   1_655  A
N3           H34   1.035       .  S
N4           C11   1.351       .  A
N4           C12   1.349       .  A
C5           C13   1.387       .  A
C5           C21   1.415       .  A
C6           C22   1.411       .  A
C6           C14   1.384       .  A
C7           C15   1.386       .  A
C7           C24   1.418       .  A
C8           C23   1.420       .  A
C8           C16   1.388       .  A
C9           C21   1.420       .  A
C9           C17   1.388       .  A
C10          C24   1.413       .  A
C10          C18   1.384       .  A
C11          C19   1.385       .  A
C11          C22   1.411       .  A
C12          C20   1.388       .  A
C12          C23   1.416       .  A
C13          C14   1.375   1_455  A
C13          H25   1.082       .  S
C14          H26   1.082       .  S
C15          C16   1.375   1_455  A
C15          H27   1.082       .  S
C16          H28   1.082       .  S
C17          C18   1.372       .  A
C17          H29   1.082       .  S
C18          H30   1.082       .  S
C19          C20   1.376       .  A
C19          H31   1.082       .  S
C20          H32   1.082       .  S
C21        C2057   1.536       .  S
C22        C2085   1.503       .  S
C23        C2029   1.493       .  S
C24        C2113   1.501       .  S
O35         Mg37   2.158       .  S
O35         Mg43   2.153       .  S
O35          C70   1.235       .  S
C36          H75   1.081       .  S
C36          O49   1.236       .  S
C36          O73   1.271       .  A
Mg37         O66   2.166       .  S
Mg37         O81   2.306       .  S
Mg37         O77   2.272       .  S
Mg37         O48   2.292       .  S
O38         Mg80   2.159       .  S
O38         Mg63   2.172       .  S
O38          C59   1.236       .  S
O39          C70   1.270       .  A
O39         Mg63   2.304       .  S
C40        C1889   1.498       .  S
C40          O42   1.273       .  A
C40          O54   1.276       .  A
O41          C69   1.270       .  A
O41         Mg43   2.302       .  S
O42         Mg74   2.276       .  S
Mg43         O49   2.158       .  S
Mg43         O57   2.267       .  S
Mg43         O45   2.311       .  S
C44        C1980   1.497       .  S
C44          O82   1.271       .  A
C44          O50   1.278       .  A
O45          C52   1.275       .  A
H46          C59   1.081       .  S
C47          H72   1.081       .  S
C47          O61   1.236       .  S
C47          O62   1.271       .  A
O48          C71   1.268       .  A
O49         Mg63   2.155       .  S
O50         Mg80   2.325       .  S
C51        C1924   1.498       .  S
C51          O64   1.274       .  A
C51          O56   1.275       .  A
C52        C2120   1.504       .  S
C52          O79   1.275       .  A
Mg53         O60   2.139       .  S
Mg53         O61   2.153       .  S
Mg53         O54   2.309       .  S
Mg53         O55   2.309       .  S
Mg53         O82   2.262       .  S
O55          C59   1.272       .  A
O56         Mg63   2.306       .  S
O57          C76   1.272       .  A
O58          C78   1.274       .  A
O58         Mg74   2.301       .  S
O60         Mg74   2.153       .  S
O60          C71   1.234       .  S
O61         Mg80   2.158       .  S
O62         Mg74   2.306       .  S
Mg63         O79   2.297       .  S
O64         Mg80   2.279       .  S
H65          C70   1.081       .  S
O66         Mg74   2.157       .  S
O66          C69   1.236       .  S
H67          C69   1.081       .  S
H68          C71   1.081       .  S
O73         Mg80   2.309       .  S
C76        C1952   1.493       .  S
C76          O81   1.275       .  A
O77          C78   1.273       .  A
C78        C2001   1.492       .  S
O83         Mg85   2.161       .  S
O83         Mg91   2.171       .  S
O83         C118   1.236       .  S
C84         H123   1.081       .  S
C84          O97   1.236       .  S
C84         O121   1.271       .  A
Mg85        O114   2.163       .  S
Mg85        O129   2.312       .  S
Mg85        O125   2.301       .  S
Mg85         O96   2.305       .  S
O86        Mg128   2.158       .  S
O86        Mg111   2.166       .  S
O86         C107   1.236       .  S
O87         C118   1.271       .  A
O87        Mg111   2.306       .  S
C88        C1840   1.483       .  S
C88          O90   1.271       .  A
C88         O102   1.276       .  A
O89         C117   1.269       .  A
O89         Mg91   2.292       .  S
O90        Mg122   2.251       .  S
Mg91         O97   2.156       .  S
Mg91        O105   2.272       .  S
Mg91         O93   2.316       .  S
C92        C1749   1.492       .  S
C92         O130   1.274       .  A
C92          O98   1.276       .  A
O93         C100   1.276       .  A
H94         C107   1.081       .  S
C95         H120   1.081       .  S
C95         O109   1.236       .  S
C95         O110   1.271       .  A
O96         C119   1.270       .  A
O97        Mg111   2.150       .  S
O98        Mg128   2.322       .  S
C99        C1861   1.486       .  S
C99         O112   1.271       .  A
C99         O104   1.277       .  A
C100       C1805   1.496       .  S
C100        O127   1.275       .  A
Mg101       O108   2.169       .  S
Mg101       O109   2.148       .  S
Mg101       O102   2.314       .  S
Mg101       O103   2.309       .  S
Mg101       O130   2.290       .  S
O103        C107   1.272       .  A
O104       Mg111   2.324       .  S
O105        C124   1.273       .  A
O106        C126   1.276       .  A
O106       Mg122   2.320       .  S
O108       Mg122   2.161       .  S
O108        C119   1.235       .  S
O109       Mg128   2.150       .  S
O110       Mg122   2.304       .  S
Mg111       O127   2.292       .  S
O112       Mg128   2.260       .  S
H113        C118   1.081       .  S
O114       Mg122   2.146       .  S
O114        C117   1.235       .  S
H115        C117   1.081       .  S
H116        C119   1.081       .  S
O121       Mg128   2.303       .  S
C124       C2092   1.508       .  S
C124        O129   1.277       .  A
O125        C126   1.275       .  A
C126       C1777   1.492       .  S
N131        C136   1.353       .  A
N131        C135   1.356       .  A
N131        H163   1.036       .  S
N132        C139   1.353       .  A
N132        C140   1.353   1_545  A
N133        C138   1.355       .  A
N133        C137   1.353       .  A
N133        H164   1.037       .  S
N134        C141   1.352   1_565  A
N134        C142   1.354       .  A
C135        C143   1.386       .  A
C135        C151   1.419       .  A
C136        C152   1.419       .  A
C136        C144   1.388       .  A
C137        C145   1.387       .  A
C137        C154   1.417       .  A
C138        C153   1.418       .  A
C138        C146   1.386       .  A
C139        C151   1.416       .  A
C139        C147   1.386       .  A
C140        C154   1.416       .  A
C140        C148   1.386       .  A
C141        C149   1.386       .  A
C141        C152   1.416       .  A
C142        C150   1.386       .  A
C142        C153   1.418       .  A
C143        C144   1.377       .  A
C143        H155   1.082       .  S
C144        H156   1.082       .  S
C145        C146   1.375       .  A
C145        H157   1.082       .  S
C146        H158   1.082       .  S
C147        C148   1.373   1_545  A
C147        H159   1.083       .  S
C148        H160   1.082       .  S
C149        C150   1.373   1_545  A
C149        H161   1.082       .  S
C150        H162   1.082       .  S
C151       C1700   1.502       .  S
C152       C2008   1.495       .  S
C153       C1665   1.506       .  S
C154       C1728   1.496       .  S
O165       Mg167   2.160       .  S
O165       Mg173   2.154       .  S
O165        C200   1.235       .  S
C166        H205   1.081       .  S
C166        O179   1.235       .  S
C166        O203   1.270       .  A
Mg167       O196   2.154       .  S
Mg167       O211   2.299       .  S
Mg167       O207   2.291       .  S
Mg167       O178   2.301       .  S
O168       Mg210   2.153       .  S
O168       Mg193   2.157       .  S
O168        C189   1.236       .  S
O169        C200   1.270       .  A
O169       Mg193   2.300       .  S
C170       C1532   1.501       .  S
C170        O172   1.273       .  A
C170        O184   1.276       .  A
O171        C199   1.272       .  A
O171       Mg173   2.309       .  S
O172       Mg204   2.274       .  S
Mg173       O179   2.150       .  S
Mg173       O187   2.261       .  S
Mg173       O175   2.323       .  S
C174       C1721   1.493       .  S
C174        O212   1.272       .  A
C174        O180   1.276       .  A
O175        C182   1.277       .  A
H176        C189   1.081       .  S
C177        H202   1.081       .  S
C177        O191   1.236       .  S
C177        O192   1.272       .  A
O178        C201   1.270       .  A
O179       Mg193   2.159       .  S
O180       Mg210   2.310       .  S
C181       C1581   1.505       .  S
C181        O194   1.275       .  A
C181        O186   1.275       .  A
C182       C1637   1.502       .  S
C182        O209   1.273       .  A
Mg183       O190   2.156       .  S
Mg183       O191   2.160       .  S
Mg183       O184   2.320       .  S
Mg183       O185   2.304       .  S
Mg183       O212   2.273       .  S
O185        C189   1.271       .  A
O186       Mg193   2.311       .  S
O187        C206   1.272       .  A
O188        C208   1.277       .  A
O188       Mg204   2.326       .  S
O190       Mg204   2.152       .  S
O190        C201   1.235       .  S
O191       Mg210   2.168       .  S
O192       Mg204   2.312       .  S
Mg193       O209   2.276       .  S
O194       Mg210   2.287       .  S
H195        C200   1.081       .  S
O196       Mg204   2.155       .  S
O196        C199   1.237       .  S
H197        C199   1.081       .  S
H198        C201   1.081       .  S
O203       Mg210   2.302       .  S
C206       C1560   1.487       .  S
C206        O211   1.275       .  A
O207        C208   1.274       .  A
C208       C1609   1.508       .  S
N213        C218   1.354       .  A
N213        C217   1.356       .  A
N213        H245   1.038       .  S
N214        C221   1.353   1_455  A
N214        C222   1.353       .  A
N215        C220   1.356       .  A
N215        C219   1.355       .  A
N215        H246   1.037       .  S
N216        C223   1.354       .  A
N216        C224   1.354   1_655  A
C217        C225   1.386       .  A
C217        C233   1.418       .  A
C218        C234   1.419       .  A
C218        C226   1.388       .  A
C219        C227   1.386       .  A
C219        C236   1.419       .  A
C220        C235   1.421       .  A
C220        C228   1.388       .  A
C221        C233   1.415       .  A
C221        C229   1.385       .  A
C222        C236   1.417       .  A
C222        C230   1.387       .  A
C223        C231   1.387       .  A
C223        C234   1.419       .  A
C224        C232   1.386       .  A
C224        C235   1.419       .  A
C225        C226   1.374       .  A
C225        H237   1.082       .  S
C226        H238   1.082       .  S
C227        C228   1.375       .  A
C227        H239   1.082       .  S
C228        H240   1.082       .  S
C229        C230   1.374   1_655  A
C229        H241   1.082       .  S
C230        H242   1.082       .  S
C231        C232   1.376   1_655  A
C231        H243   1.082       .  S
C232        H244   1.082       .  S
C233       C1476   1.505       .  S
C234       C1644   1.500       .  S
C235       C1441   1.506       .  S
C236       C1497   1.504       .  S
O247       Mg249   2.161       .  S
O247       Mg255   2.157       .  S
O247        C282   1.236       .  S
C248        H287   1.081       .  S
C248        O261   1.236       .  S
C248        O285   1.272       .  A
Mg249       O278   2.163       .  S
Mg249       O293   2.307       .  S
Mg249       O289   2.283       .  S
Mg249       O260   2.293       .  S
O250       Mg292   2.157       .  S
O250       Mg275   2.166       .  S
O250        C271   1.236       .  S
O251        C282   1.272       .  A
O251       Mg275   2.307       .  S
C252       C1413   1.483       .  S
C252        O254   1.273       .  A
C252        O266   1.273       .  A
O253        C281   1.270       .  A
O253       Mg255   2.299       .  S
O254       Mg286   2.277       .  S
Mg255       O261   2.169       .  S
Mg255       O269   2.287       .  S
Mg255       O257   2.319       .  S
C256       C1301   1.485       .  S
C256        O294   1.270       .  A
C256        O262   1.278       .  A
O257        C264   1.276       .  A
H258        C271   1.081       .  S
C259        H284   1.081       .  S
C259        O273   1.235       .  S
C259        O274   1.270       .  A
O260        C283   1.269       .  A
O261       Mg275   2.154       .  S
O262       Mg292   2.331       .  S
C263       C1392   1.496       .  S
C263        O276   1.274       .  A
C263        O268   1.279       .  A
C264       C1329   1.494       .  S
C264        O291   1.276       .  A
Mg265       O272   2.143       .  S
Mg265       O273   2.157       .  S
Mg265       O266   2.287       .  S
Mg265       O267   2.305       .  S
Mg265       O294   2.255       .  S
O267        C271   1.271       .  A
O268       Mg275   2.329       .  S
O269        C288   1.275       .  A
O270        C290   1.276       .  A
O270       Mg286   2.303       .  S
O272       Mg286   2.169       .  S
O272        C283   1.235       .  S
O273       Mg292   2.152       .  S
O274       Mg286   2.297       .  S
Mg275       O291   2.301       .  S
O276       Mg292   2.277       .  S
H277        C282   1.081       .  S
O278       Mg286   2.145       .  S
O278        C281   1.236       .  S
H279        C281   1.081       .  S
H280        C283   1.081       .  S
O285       Mg292   2.309       .  S
C288       C1504   1.493       .  S
C288        O293   1.275       .  A
O289        C290   1.274       .  A
C290       C1357   1.502       .  S
N295        C300   1.353       .  A
N295        C299   1.353       .  A
N295        H327   1.034       .  S
N296        C303   1.353       .  A
N296        C304   1.353   1_565  A
N297        C302   1.355       .  A
N297        C301   1.355       .  A
N297        H328   1.033       .  S
N298        C305   1.354   1_545  A
N298        C306   1.353       .  A
C299        C307   1.387       .  A
C299        C315   1.416       .  A
C300        C316   1.416       .  A
C300        C308   1.387       .  A
C301        C309   1.387       .  A
C301        C318   1.419       .  A
C302        C317   1.420       .  A
C302        C310   1.388       .  A
C303        C315   1.417       .  A
C303        C311   1.387       .  A
C304        C318   1.415       .  A
C304        C312   1.385       .  A
C305        C313   1.386       .  A
C305        C316   1.417       .  A
C306        C314   1.387       .  A
C306        C317   1.418       .  A
C307        C308   1.376       .  A
C307        H319   1.082       .  S
C308        H320   1.082       .  S
C309        C310   1.376       .  A
C309        H321   1.083       .  S
C310        H322   1.082       .  S
C311        C312   1.372   1_565  A
C311        H323   1.082       .  S
C312        H324   1.082       .  S
C313        C314   1.373   1_565  A
C313        H325   1.082       .  S
C314        H326   1.082       .  S
C315       C1420   1.498       .  S
C316       C1273   1.500       .  S
C317       C1868   1.499       .  S
C318       C1245   1.499       .  S
N329        C334   1.355   1_554  A
N329        C333   1.357       .  A
N329        H361   1.036       .  S
N330        C337   1.354       .  A
N330        C338   1.353       .  A
N331        C336   1.355   1_554  A
N331        C335   1.353       .  A
N331        H362   1.036       .  S
N332        C339   1.353       .  A
N332        C340   1.355       .  A
C333        C341   1.386       .  A
C333        C349   1.421       .  A
C334        C350   1.421       .  A
C334        C342   1.388       .  A
C335        C343   1.387       .  A
C335        C352   1.417       .  A
C336        C351   1.418       .  A
C336        C344   1.388       .  A
C337        C349   1.418       .  A
C337        C345   1.386       .  A
C338        C352   1.417       .  A
C338        C346   1.386       .  A
C339        C347   1.387       .  A
C339        C350   1.420       .  A
C340        C348   1.386       .  A
C340        C351   1.420       .  A
C341        C342   1.374   1_554  A
C341        H353   1.082       .  S
C342        H354   1.082       .  S
C343        C344   1.372   1_554  A
C343        H355   1.082       .  S
C344        H356   1.082       .  S
C345        C346   1.375       .  A
C345        H357   1.082       .  S
C346        H358   1.082       .  S
C347        C348   1.377       .  A
C347        H359   1.082       .  S
C348        H360   1.082       .  S
C349       C1224   1.506       .  S
C350       C1385   1.502       .  S
C351       C1189   1.503       .  S
C352       C1973   1.497       .  S
N363        C368   1.354       .  A
N363        C367   1.355   1_556  A
N363        H395   1.036       .  S
N364        C371   1.354       .  A
N364        C372   1.353       .  A
N365        C370   1.356   1_554  A
N365        C369   1.355       .  A
N365        H396   1.035       .  S
N366        C373   1.353       .  A
N366        C374   1.354       .  A
C367        C375   1.386       .  A
C367        C383   1.417       .  A
C368        C384   1.419       .  A
C368        C376   1.389       .  A
C369        C377   1.388       .  A
C369        C386   1.422       .  A
C370        C385   1.420       .  A
C370        C378   1.386       .  A
C371        C383   1.417       .  A
C371        C379   1.385       .  A
C372        C386   1.420       .  A
C372        C380   1.387       .  A
C373        C381   1.386       .  A
C373        C384   1.417       .  A
C374        C382   1.387       .  A
C374        C385   1.419       .  A
C375        C376   1.372   1_554  A
C375        H387   1.082       .  S
C376        H388   1.082       .  S
C377        C378   1.378   1_554  A
C377        H389   1.082       .  S
C378        H390   1.082       .  S
C379        C380   1.375       .  A
C379        H391   1.082       .  S
C380        H392   1.082       .  S
C381        C382   1.375       .  A
C381        H393   1.082       .  S
C382        H394   1.082       .  S
C383       C1133   1.500       .  S
C384       C1833   1.498       .  S
C385       C1161   1.505       .  S
C386       C1616   1.503       .  S
O397       Mg399   2.154       .  S
O397       Mg405   2.161       .  S
O397        C432   1.235       .  S
C398        H437   1.081       .  S
C398        O411   1.236       .  S
C398        O435   1.271       .  A
Mg399       O428   2.155       .  S
Mg399       O443   2.292       .  S
Mg399       O439   2.263       .  S
Mg399       O410   2.298       .  S
O400       Mg442   2.157       .  S
O400       Mg425   2.164       .  S
O400        C421   1.236       .  S
O401        C432   1.269       .  A
O401       Mg425   2.297       .  S
C402       C1049   1.497       .  S
C402        O404   1.276       .  A
C402        O416   1.276       .  A
O403        C431   1.272       .  A
O403       Mg405   2.307       .  S
O404       Mg436   2.286       .  S
Mg405       O411   2.149       .  S
Mg405       O419   2.282       .  S
Mg405       O407   2.327       .  S
C406       C1280   1.485       .  S
C406        O444   1.272       .  A
C406        O412   1.275       .  A
O407        C414   1.279       .  A
H408        C421   1.081       .  S
C409        H434   1.081       .  S
C409        O423   1.235       .  S
C409        O424   1.270       .  A
O410        C433   1.270       .  A
O411       Mg425   2.163       .  S
O412       Mg442   2.318       .  S
C413       C1112   1.487       .  S
C413        O426   1.272       .  A
C413        O418   1.276       .  A
C414       C1469   1.506       .  S
C414        O441   1.275       .  A
Mg415       O422   2.153       .  S
Mg415       O423   2.156       .  S
Mg415       O416   2.312       .  S
Mg415       O417   2.304       .  S
Mg415       O444   2.277       .  S
O417        C421   1.271       .  A
O418       Mg425   2.318       .  S
O419        C438   1.274       .  A
O420        C440   1.279       .  A
O420       Mg436   2.344       .  S
O422       Mg436   2.162       .  S
O422        C433   1.236       .  S
O423       Mg442   2.152       .  S
O424       Mg436   2.303       .  S
Mg425       O441   2.286       .  S
O426       Mg442   2.256       .  S
H427        C432   1.081       .  S
O428       Mg436   2.163       .  S
O428        C431   1.237       .  S
H429        C431   1.081       .  S
H430        C433   1.081       .  S
O435       Mg442   2.300       .  S
C438       C1077   1.490       .  S
C438        O443   1.274       .  A
O439        C440   1.271       .  A
C440       C1168   1.495       .  S
N445        C450   1.355       .  A
N445        C449   1.353       .  A
N445        H477   1.038       .  S
N446        C453   1.352   1_545  A
N446        C454   1.353       .  A
N447        C452   1.352       .  A
N447        C451   1.354       .  A
N447        H478   1.036       .  S
N448        C455   1.352   1_545  A
N448        C456   1.351       .  A
C449        C457   1.388       .  A
C449        C465   1.417       .  A
C450        C466   1.416       .  A
C450        C458   1.386       .  A
C451        C459   1.388       .  A
C451        C468   1.417       .  A
C452        C467   1.415       .  A
C452        C460   1.387       .  A
C453        C465   1.416       .  A
C453        C461   1.387       .  A
C454        C468   1.416       .  A
C454        C462   1.385       .  A
C455        C463   1.386       .  A
C455        C466   1.413       .  A
C456        C464   1.387       .  A
C456        C467   1.413       .  A
C457        C458   1.376       .  A
C457        H469   1.082       .  S
C458        H470   1.082       .  S
C459        C460   1.375       .  A
C459        H471   1.082       .  S
C460        H472   1.082       .  S
C461        C462   1.375   1_565  A
C461        H473   1.082       .  S
C462        H474   1.082       .  S
C463        C464   1.373   1_565  A
C463        H475   1.082       .  S
C464        H476   1.082       .  S
C465       C1105   1.496       .  S
C466       C1588   1.499       .  S
C467       C1021   1.492       .  S
C468       C1812   1.501       .  S
O479       Mg481   2.156       .  S
O479       Mg487   2.154       .  S
O479        C514   1.236       .  S
C480        H519   1.081       .  S
C480        O493   1.235       .  S
C480        O517   1.270       .  A
Mg481       O510   2.152       .  S
Mg481       O525   2.316       .  S
Mg481       O521   2.284       .  S
Mg481       O492   2.302       .  S
O482       Mg524   2.154       .  S
O482       Mg507   2.150       .  S
O482        C503   1.236       .  S
O483        C514   1.271       .  A
O483       Mg507   2.303       .  S
C484       C2036   1.491       .  S
C484        O486   1.273       .  A
C484        O498   1.272       .  A
O485        C513   1.271       .  A
O485       Mg487   2.302       .  S
O486       Mg518   2.278       .  S
Mg487       O493   2.161       .  S
Mg487       O501   2.274       .  S
Mg487       O489   2.317       .  S
C488       C1028   1.494       .  S
C488        O526   1.270       .  A
C488        O494   1.275       .  A
O489        C496   1.276       .  A
H490        C503   1.081       .  S
C491        H516   1.081       .  S
C491        O505   1.237       .  S
C491        O506   1.272       .  A
O492        C515   1.270       .  A
O493       Mg507   2.151       .  S
O494       Mg524   2.312       .  S
C495       C1693   1.494       .  S
C495        O508   1.272       .  A
C495        O500   1.278       .  A
C496        C965   1.507       .  S
C496        O523   1.274       .  A
Mg497       O504   2.148       .  S
Mg497       O505   2.155       .  S
Mg497       O498   2.284       .  S
Mg497       O499   2.300       .  S
Mg497       O526   2.258       .  S
O499        C503   1.270       .  A
O500       Mg507   2.321       .  S
O501        C520   1.273       .  A
O502        C522   1.277       .  A
O502       Mg518   2.322       .  S
O504       Mg518   2.152       .  S
O504        C515   1.235       .  S
O505       Mg524   2.153       .  S
O506       Mg518   2.307       .  S
Mg507       O523   2.277       .  S
O508       Mg524   2.270       .  S
H509        C514   1.081       .  S
O510       Mg518   2.147       .  S
O510        C513   1.236       .  S
H511        C513   1.081       .  S
H512        C515   1.081       .  S
O517       Mg524   2.304       .  S
C520       C1140   1.499       .  S
C520        O525   1.277       .  A
O521        C522   1.275       .  A
C522       C1000   1.504       .  S
N527        C532   1.354       .  A
N527        C531   1.353   1_455  A
N527        H559   1.032       .  S
N528        C535   1.350       .  A
N528        C536   1.351       .  A
N529        C534   1.354       .  A
N529        C533   1.357   1_455  A
N529        H560   1.031       .  S
N530        C537   1.355       .  A
N530        C538   1.352       .  A
C531        C539   1.388       .  A
C531        C547   1.415       .  A
C532        C548   1.416       .  A
C532        C540   1.386       .  A
C533        C541   1.386       .  A
C533        C550   1.419       .  A
C534        C549   1.420       .  A
C534        C542   1.388       .  A
C535        C547   1.411       .  A
C535        C543   1.387       .  A
C536        C550   1.412       .  A
C536        C544   1.386       .  A
C537        C545   1.385       .  A
C537        C548   1.417       .  A
C538        C546   1.388       .  A
C538        C549   1.418       .  A
C539        C540   1.374   1_655  A
C539        H551   1.082       .  S
C540        H552   1.083       .  S
C541        C542   1.377   1_655  A
C541        H553   1.082       .  S
C542        H554   1.082       .  S
C543        C544   1.370       .  A
C543        H555   1.082       .  S
C544        H556   1.082       .  S
C545        C546   1.374       .  A
C545        H557   1.082       .  S
C546        H558   1.082       .  S
C547       C1553   1.488       .  S
C548        C944   1.504       .  S
C549       C1917   1.496       .  S
C550        C993   1.500       .  S
O561       Mg563   2.163       .  S
O561       Mg569   2.151       .  S
O561        C596   1.235       .  S
C562        H601   1.081       .  S
C562        O575   1.237       .  S
C562        O599   1.272       .  A
Mg563       O592   2.160       .  S
Mg563       O607   2.321       .  S
Mg563       O603   2.281       .  S
Mg563       O574   2.298       .  S
O564       Mg606   2.157       .  S
O564       Mg589   2.178       .  S
O564        C585   1.236       .  S
O565        C596   1.270       .  A
O565       Mg589   2.301       .  S
C566        C916   1.508       .  S
C566        O568   1.276       .  A
C566        O580   1.279       .  A
O567        C595   1.273       .  A
O567       Mg569   2.312       .  S
O568       Mg600   2.297       .  S
Mg569       O575   2.164       .  S
Mg569       O583   2.290       .  S
Mg569       O571   2.341       .  S
C570       C1672   1.492       .  S
C570        O608   1.273       .  A
C570        O576   1.278       .  A
O571        C578   1.279       .  A
H572        C585   1.081       .  S
C573        H598   1.081       .  S
C573        O587   1.236       .  S
C573        O588   1.272       .  A
O574        C597   1.270       .  A
O575       Mg589   2.157       .  S
O576       Mg606   2.322       .  S
C577        C881   1.495       .  S
C577        O590   1.275       .  A
C577        O582   1.276       .  A
C578       C1217   1.500       .  S
C578        O605   1.276       .  A
Mg579       O586   2.152       .  S
Mg579       O587   2.171       .  S
Mg579       O580   2.334       .  S
Mg579       O581   2.308       .  S
Mg579       O608   2.285       .  S
O581        C585   1.272       .  A
O582       Mg589   2.316       .  S
O583        C602   1.275       .  A
O584        C604   1.279       .  A
O584       Mg600   2.341       .  S
O586       Mg600   2.160       .  S
O586        C597   1.236       .  S
O587       Mg606   2.169       .  S
O588       Mg600   2.308       .  S
Mg589       O605   2.305       .  S
O590       Mg606   2.289       .  S
H591        C596   1.081       .  S
O592       Mg600   2.171       .  S
O592        C595   1.238       .  S
H593        C595   1.081       .  S
H594        C597   1.081       .  S
O599       Mg606   2.310       .  S
C602        C937   1.494       .  S
C602        O607   1.276       .  A
O603        C604   1.274       .  A
C604       C1448   1.501       .  S
N609        C614   1.355       .  A
N609        C613   1.354       .  A
N609        H641   1.038       .  S
N610        C617   1.353   1_565  A
N610        C618   1.353       .  A
N611        C616   1.356       .  A
N611        C615   1.356       .  A
N611        H642   1.037       .  S
N612        C619   1.352   1_565  A
N612        C620   1.351       .  A
C613        C621   1.387       .  A
C613        C629   1.417       .  A
C614        C630   1.417       .  A
C614        C622   1.387       .  A
C615        C623   1.387       .  A
C615        C632   1.421       .  A
C616        C631   1.421       .  A
C616        C624   1.387       .  A
C617        C629   1.415       .  A
C617        C625   1.385       .  A
C618        C632   1.418       .  A
C618        C626   1.387       .  A
C619        C627   1.386       .  A
C619        C630   1.413       .  A
C620        C628   1.387       .  A
C620        C631   1.415       .  A
C621        C622   1.375       .  A
C621        H633   1.082       .  S
C622        H634   1.082       .  S
C623        C624   1.378       .  A
C623        H635   1.082       .  S
C624        H636   1.082       .  S
C625        C626   1.373   1_545  A
C625        H637   1.082       .  S
C626        H638   1.082       .  S
C627        C628   1.372   1_545  A
C627        H639   1.082       .  S
C628        H640   1.082       .  S
C629       C1945   1.497       .  S
C630        C860   1.499       .  S
C631       C1364   1.499       .  S
C632        C909   1.506       .  S
O643       Mg645   2.173       .  S
O643       Mg651   2.156       .  S
O643        C678   1.237       .  S
C644        H683   1.081       .  S
C644        O657   1.236       .  S
C644        O681   1.271       .  A
Mg645       O674   2.160       .  S
Mg645       O689   2.330       .  S
Mg645       O685   2.309       .  S
Mg645       O656   2.303       .  S
O646       Mg688   2.154       .  S
O646       Mg671   2.152       .  S
O646        C667   1.235       .  S
O647        C678   1.273       .  A
O647       Mg671   2.314       .  S
C648        C853   1.499       .  S
C648        O650   1.271       .  A
C648        O662   1.275       .  A
O649        C677   1.271       .  A
O649       Mg651   2.304       .  S
O650       Mg682   2.269       .  S
Mg651       O657   2.154       .  S
Mg651       O665   2.258       .  S
Mg651       O653   2.316       .  S
C652       C2064   1.502       .  S
C652        O690   1.272       .  A
C652        O658   1.277       .  A
O653        C660   1.275       .  A
H654        C667   1.081       .  S
C655        H680   1.081       .  S
C655        O669   1.236       .  S
C655        O670   1.270       .  A
O656        C679   1.270       .  A
O657       Mg671   2.149       .  S
O658       Mg688   2.315       .  S
C659        C832   1.494       .  S
C659        O672   1.274       .  A
C659        O664   1.278       .  A
C660       C1196   1.490       .  S
C660        O687   1.274       .  A
Mg661       O668   2.146       .  S
Mg661       O669   2.159       .  S
Mg661       O662   2.305       .  S
Mg661       O663   2.300       .  S
Mg661       O690   2.265       .  S
O663        C667   1.270       .  A
O664       Mg671   2.325       .  S
O665        C684   1.271       .  A
O666        C686   1.272       .  A
O666       Mg682   2.289       .  S
O668       Mg682   2.161       .  S
O668        C679   1.235       .  S
O669       Mg688   2.157       .  S
O670       Mg682   2.297       .  S
Mg671       O687   2.290       .  S
O672       Mg688   2.281       .  S
H673        C678   1.081       .  S
O674       Mg682   2.155       .  S
O674        C677   1.236       .  S
H675        C677   1.081       .  S
H676        C679   1.081       .  S
O681       Mg688   2.303       .  S
C684        C804   1.492       .  S
C684        O689   1.278       .  A
O685        C686   1.277       .  A
C686       C1252   1.489       .  S
N691        C696   1.358   1_455  A
N691        C695   1.353       .  A
N691        H723   1.036       .  S
N692        C699   1.354       .  A
N692        C700   1.356       .  A
N693        C698   1.354       .  A
N693        C697   1.357   1_655  A
N693        H724   1.037       .  S
N694        C701   1.352       .  A
N694        C702   1.351       .  A
C695        C703   1.389       .  A
C695        C711   1.423       .  A
C696        C712   1.420       .  A
C696        C704   1.385       .  A
C697        C705   1.387       .  A
C697        C714   1.421       .  A
C698        C713   1.421       .  A
C698        C706   1.387       .  A
C699        C711   1.421       .  A
C699        C707   1.387       .  A
C700        C714   1.420       .  A
C700        C708   1.386       .  A
C701        C709   1.385       .  A
C701        C712   1.412       .  A
C702        C710   1.388       .  A
C702        C713   1.415       .  A
C703        C704   1.378   1_455  A
C703        H715   1.082       .  S
C704        H716   1.082       .  S
C705        C706   1.377   1_455  A
C705        H717   1.082       .  S
C706        H718   1.082       .  S
C707        C708   1.375       .  A
C707        H719   1.082       .  S
C708        H720   1.082       .  S
C709        C710   1.370       .  A
C709        H721   1.082       .  S
C710        H722   1.082       .  S
C711        C825   1.501       .  S
C712       C1784   1.505       .  S
C713       C1084   1.500       .  S
C714       C1336   1.509       .  S
N725        C730   1.354       .  A
N725        C729   1.352       .  A
N725        H757   1.037       .  S
N726        C733   1.352       .  A
N726        C734   1.353   1_554  A
N727        C732   1.353       .  A
N727        C731   1.355       .  A
N727        H758   1.037       .  S
N728        C735   1.353   1_556  A
N728        C736   1.351       .  A
C729        C737   1.388       .  A
C729        C745   1.416       .  A
C730        C746   1.414       .  A
C730        C738   1.386       .  A
C731        C739   1.387       .  A
C731        C748   1.419       .  A
C732        C747   1.417       .  A
C732        C740   1.387       .  A
C733        C745   1.416       .  A
C733        C741   1.387       .  A
C734        C748   1.416       .  A
C734        C742   1.386       .  A
C735        C743   1.385       .  A
C735        C746   1.414       .  A
C736        C744   1.387       .  A
C736        C747   1.416       .  A
C737        C738   1.372       .  A
C737        H749   1.082       .  S
C738        H750   1.082       .  S
C739        C740   1.376       .  A
C739        H751   1.082       .  S
C740        H752   1.082       .  S
C741        C742   1.376   1_554  A
C741        H753   1.082       .  S
C742        H754   1.082       .  S
C743        C744   1.374   1_554  A
C743        H755   1.082       .  S
C744        H756   1.082       .  S
C745       C1896   1.493       .  S
C746        C972   1.500       .  S
C747       C1756   1.496       .  S
C748        C797   1.503       .  S
N759        C764   1.353   1_554  A
N759        C763   1.354       .  A
N759        H791   1.037       .  S
N760        C767   1.354       .  A
N760        C768   1.353       .  A
N761        C766   1.357       .  A
N761        C765   1.354   1_556  A
N761        H792   1.036       .  S
N762        C769   1.351       .  A
N762        C770   1.352       .  A
C763        C771   1.387       .  A
C763        C779   1.416       .  A
C764        C780   1.415       .  A
C764        C772   1.387       .  A
C765        C773   1.387       .  A
C765        C782   1.420       .  A
C766        C781   1.422       .  A
C766        C774   1.387       .  A
C767        C779   1.415       .  A
C767        C775   1.385       .  A
C768        C782   1.418       .  A
C768        C776   1.388       .  A
C769        C777   1.386       .  A
C769        C780   1.413       .  A
C770        C778   1.387       .  A
C770        C781   1.415       .  A
C771        C772   1.372   1_554  A
C771        H783   1.082       .  S
C772        H784   1.082       .  S
C773        C774   1.379   1_554  A
C773        H785   1.082       .  S
C774        H786   1.082       .  S
C775        C776   1.373       .  A
C775        H787   1.082       .  S
C776        H788   1.082       .  S
C777        C778   1.373       .  A
C777        H789   1.082       .  S
C778        H790   1.082       .  S
C779        C888   1.502       .  S
C780       C1308   1.494       .  S
C781       C1056   1.503       .  S
C782       C1525   1.498       .  S
C793        C794   1.412       .  A
C793        C798   1.413       .  A
C793        C811   1.450       .  S
C794        C795   1.412       .  A
C794        C799   1.502       .  S
C795        C796   1.414       .  A
C795        C800   1.450       .  S
C796        C797   1.414       .  A
C796        C812   1.450       .  S
C797        C798   1.413       .  A
C798        C801   1.449       .  S
C799        C802   1.410       .  A
C799        C806   1.413       .  A
C800        N817   1.157       .  T
C801        N819   1.157       .  T
C802        C803   1.412       .  A
C802        C807   1.451       .  S
C803        C804   1.418       .  A
C803        C809   1.451       .  S
C804        C805   1.412       .  A
C805        C806   1.414       .  A
C805        C808   1.449       .  S
C806        C810   1.450       .  S
C807        N814   1.157       .  T
C808        N815   1.157       .  T
C809        N813   1.157       .  T
C810        N816   1.157       .  T
C811        N820   1.157       .  T
C812        N818   1.157       .  T
C821        C822   1.413       .  A
C821        C826   1.411       .  A
C821        C839   1.450       .  S
C822        C823   1.413       .  A
C822        C827   1.503       .  S
C823        C824   1.414       .  A
C823        C828   1.450       .  S
C824        C825   1.413       .  A
C824        C840   1.450       .  S
C825        C826   1.411       .  A
C826        C829   1.450       .  S
C827        C830   1.412       .  A
C827        C834   1.412       .  A
C828        N845   1.157       .  T
C829        N847   1.157       .  T
C830        C831   1.414       .  A
C830        C835   1.450       .  S
C831        C832   1.416       .  A
C831        C837   1.451       .  S
C832        C833   1.413       .  A
C833        C834   1.413       .  A
C833        C836   1.448       .  S
C834        C838   1.450       .  S
C835        N842   1.157       .  T
C836        N843   1.157       .  T
C837        N841   1.157       .  T
C838        N844   1.157       .  T
C839        N848   1.157       .  T
C840        N846   1.157       .  T
C849        C850   1.410       .  A
C849        C854   1.413       .  A
C849        C867   1.452       .  S
C850        C851   1.411       .  A
C850        C855   1.501       .  S
C851        C852   1.412       .  A
C851        C856   1.451       .  S
C852        C853   1.418       .  A
C852        C868   1.451       .  S
C853        C854   1.422       .  A
C854        C857   1.451       .  S
C855        C858   1.413       .  A
C855        C862   1.413       .  A
C856        N873   1.157       .  T
C857        N875   1.157       .  T
C858        C859   1.410       .  A
C858        C863   1.451       .  S
C859        C860   1.412       .  A
C859        C865   1.451       .  S
C860        C861   1.412       .  A
C861        C862   1.412       .  A
C861        C864   1.450       .  S
C862        C866   1.450       .  S
C863        N870   1.157       .  T
C864        N871   1.157       .  T
C865        N869   1.157       .  T
C866        N872   1.157       .  T
C867        N876   1.157       .  T
C868        N874   1.157       .  T
C877        C878   1.411       .  A
C877        C882   1.414       .  A
C877        C895   1.451       .  S
C878        C879   1.410       .  A
C878        C883   1.501       .  S
C879        C880   1.413       .  A
C879        C884   1.451       .  S
C880        C881   1.418       .  A
C880        C896   1.451       .  S
C881        C882   1.415       .  A
C882        C885   1.449       .  S
C883        C886   1.411       .  A
C883        C890   1.413       .  A
C884        N901   1.157       .  T
C885        N903   1.157       .  T
C886        C887   1.411       .  A
C886        C891   1.450       .  S
C887        C888   1.414       .  A
C887        C893   1.450       .  S
C888        C889   1.413       .  A
C889        C890   1.413       .  A
C889        C892   1.450       .  S
C890        C894   1.450       .  S
C891        N898   1.157       .  T
C892        N899   1.157       .  T
C893        N897   1.157       .  T
C894        N900   1.157       .  T
C895        N904   1.157       .  T
C896        N902   1.157       .  T
C905        C906   1.413       .  A
C905        C910   1.414       .  A
C905        C923   1.450       .  S
C906        C907   1.412       .  A
C906        C911   1.506       .  S
C907        C908   1.415       .  A
C907        C912   1.449       .  S
C908        C909   1.415       .  A
C908        C924   1.450       .  S
C909        C910   1.413       .  A
C910        C913   1.450       .  S
C911        C914   1.409       .  A
C911        C918   1.411       .  A
C912        N929   1.157       .  T
C913        N931   1.157       .  T
C914        C915   1.416       .  A
C914        C919   1.451       .  S
C915        C916   1.422       .  A
C915        C921   1.448       .  S
C916        C917   1.419       .  A
C917        C918   1.417       .  A
C917        C920   1.450       .  S
C918        C922   1.450       .  S
C919        N926   1.157       .  T
C920        N927   1.157       .  T
C921        N925   1.156       .  T
C922        N928   1.157       .  T
C923        N932   1.157       .  T
C924        N930   1.157       .  T
C933        C934   1.413       .  A
C933        C938   1.416       .  A
C933        C951   1.449       .  S
C934        C935   1.411       .  A
C934        C939   1.505       .  S
C935        C936   1.413       .  A
C935        C940   1.451       .  S
C936        C937   1.416       .  A
C936        C952   1.450       .  S
C937        C938   1.414       .  A
C938        C941   1.450       .  S
C939        C942   1.412       .  A
C939        C946   1.413       .  A
C940        N957   1.157       .  T
C941        N959   1.157       .  T
C942        C943   1.414       .  A
C942        C947   1.449       .  S
C943        C944   1.415       .  A
C943        C949   1.451       .  S
C944        C945   1.413       .  A
C945        C946   1.414       .  A
C945        C948   1.449       .  S
C946        C950   1.450       .  S
C947        N954   1.157       .  T
C948        N955   1.157       .  T
C949        N953   1.157       .  T
C950        N956   1.157       .  T
C951        N960   1.157       .  T
C952        N958   1.157       .  T
C961        C962   1.408       .  A
C961        C966   1.414       .  A
C961        C979   1.452       .  S
C962        C963   1.408       .  A
C962        C967   1.500       .  S
C963        C964   1.413       .  A
C963        C968   1.451       .  S
C964        C965   1.422       .  A
C964        C980   1.450       .  S
C965        C966   1.425       .  A
C966        C969   1.450       .  S
C967        C970   1.412       .  A
C967        C974   1.411       .  A
C968        N985   1.157       .  T
C969        N987   1.157       .  T
C970        C971   1.412       .  A
C970        C975   1.450       .  S
C971        C972   1.412       .  A
C971        C977   1.450       .  S
C972        C973   1.414       .  A
C973        C974   1.411       .  A
C973        C976   1.450       .  S
C974        C978   1.450       .  S
C975        N982   1.157       .  T
C976        N983   1.157       .  T
C977        N981   1.157       .  T
C978        N984   1.157       .  T
C979        N988   1.157       .  T
C980        N986   1.157       .  T
C989        C990   1.413       .  A
C989        C994   1.412       .  A
C989       C1007   1.450       .  S
C990        C991   1.412       .  A
C990        C995   1.502       .  S
C991        C992   1.413       .  A
C991        C996   1.449       .  S
C992        C993   1.413       .  A
C992       C1008   1.450       .  S
C993        C994   1.411       .  A
C994        C997   1.450       .  S
C995        C998   1.409       .  A
C995       C1002   1.411       .  A
C996       N1013   1.157       .  T
C997       N1015   1.157       .  T
C998        C999   1.412       .  A
C998       C1003   1.452       .  S
C999       C1000   1.422       .  A
C999       C1005   1.451       .  S
C1000      C1001   1.419       .  A
C1001      C1002   1.416       .  A
C1001      C1004   1.450       .  S
C1002      C1006   1.450       .  S
C1003      N1010   1.157       .  T
C1004      N1011   1.157       .  T
C1005      N1009   1.157       .  T
C1006      N1012   1.157       .  T
C1007      N1016   1.157       .  T
C1008      N1014   1.157       .  T
C1017      C1018   1.412       .  A
C1017      C1022   1.409       .  A
C1017      C1035   1.450       .  S
C1018      C1019   1.411       .  A
C1018      C1023   1.494       .  S
C1019      C1020   1.409       .  A
C1019      C1024   1.450       .  S
C1020      C1021   1.412       .  A
C1020      C1036   1.451       .  S
C1021      C1022   1.411       .  A
C1022      C1025   1.450       .  S
C1023      C1026   1.408       .  A
C1023      C1030   1.409       .  A
C1024      N1041   1.157       .  T
C1025      N1043   1.157       .  T
C1026      C1027   1.409       .  A
C1026      C1031   1.452       .  S
C1027      C1028   1.420       .  A
C1027      C1033   1.452       .  S
C1028      C1029   1.418       .  A
C1029      C1030   1.412       .  A
C1029      C1032   1.450       .  S
C1030      C1034   1.451       .  S
C1031      N1038   1.157       .  T
C1032      N1039   1.157       .  T
C1033      N1037   1.157       .  T
C1034      N1040   1.157       .  T
C1035      N1044   1.157       .  T
C1036      N1042   1.157       .  T
C1045      C1046   1.411       .  A
C1045      C1050   1.415       .  A
C1045      C1063   1.450       .  S
C1046      C1047   1.409       .  A
C1046      C1051   1.500       .  S
C1047      C1048   1.411       .  A
C1047      C1052   1.451       .  S
C1048      C1049   1.417       .  A
C1048      C1064   1.449       .  S
C1049      C1050   1.418       .  A
C1050      C1053   1.449       .  S
C1051      C1054   1.411       .  A
C1051      C1058   1.412       .  A
C1052      N1069   1.157       .  T
C1053      N1071   1.157       .  T
C1054      C1055   1.413       .  A
C1054      C1059   1.450       .  S
C1055      C1056   1.415       .  A
C1055      C1061   1.450       .  S
C1056      C1057   1.413       .  A
C1057      C1058   1.412       .  A
C1057      C1060   1.449       .  S
C1058      C1062   1.451       .  S
C1059      N1066   1.157       .  T
C1060      N1067   1.157       .  T
C1061      N1065   1.157       .  T
C1062      N1068   1.157       .  T
C1063      N1072   1.157       .  T
C1064      N1070   1.157       .  T
C1073      C1074   1.414       .  A
C1073      C1078   1.413       .  A
C1073      C1091   1.451       .  S
C1074      C1075   1.411       .  A
C1074      C1079   1.500       .  S
C1075      C1076   1.409       .  A
C1075      C1080   1.452       .  S
C1076      C1077   1.418       .  A
C1076      C1092   1.452       .  S
C1077      C1078   1.414       .  A
C1078      C1081   1.450       .  S
C1079      C1082   1.412       .  A
C1079      C1086   1.413       .  A
C1080      N1097   1.157       .  T
C1081      N1099   1.157       .  T
C1082      C1083   1.409       .  A
C1082      C1087   1.451       .  S
C1083      C1084   1.413       .  A
C1083      C1089   1.451       .  S
C1084      C1085   1.416       .  A
C1085      C1086   1.411       .  A
C1085      C1088   1.452       .  S
C1086      C1090   1.451       .  S
C1087      N1094   1.157       .  T
C1088      N1095   1.157       .  T
C1089      N1093   1.157       .  T
C1090      N1096   1.157       .  T
C1091      N1100   1.157       .  T
C1092      N1098   1.157       .  T
C1101      C1102   1.411       .  A
C1101      C1106   1.411       .  A
C1101      C1119   1.450       .  S
C1102      C1103   1.413       .  A
C1102      C1107   1.498       .  S
C1103      C1104   1.410       .  A
C1103      C1108   1.450       .  S
C1104      C1105   1.411       .  A
C1104      C1120   1.450       .  S
C1105      C1106   1.412       .  A
C1106      C1109   1.450       .  S
C1107      C1110   1.413       .  A
C1107      C1114   1.409       .  A
C1108      N1125   1.157       .  T
C1109      N1127   1.157       .  T
C1110      C1111   1.414       .  A
C1110      C1115   1.450       .  S
C1111      C1112   1.413       .  A
C1111      C1117   1.450       .  S
C1112      C1113   1.417       .  A
C1113      C1114   1.409       .  A
C1113      C1116   1.453       .  S
C1114      C1118   1.451       .  S
C1115      N1122   1.157       .  T
C1116      N1123   1.157       .  T
C1117      N1121   1.157       .  T
C1118      N1124   1.157       .  T
C1119      N1128   1.157       .  T
C1120      N1126   1.157       .  T
C1129      C1130   1.412       .  A
C1129      C1134   1.414       .  A
C1129      C1147   1.450       .  S
C1130      C1131   1.412       .  A
C1130      C1135   1.500       .  S
C1131      C1132   1.410       .  A
C1131      C1136   1.450       .  S
C1132      C1133   1.412       .  A
C1132      C1148   1.450       .  S
C1133      C1134   1.413       .  A
C1134      C1137   1.449       .  S
C1135      C1138   1.409       .  A
C1135      C1142   1.410       .  A
C1136      N1153   1.157       .  T
C1137      N1155   1.157       .  T
C1138      C1139   1.411       .  A
C1138      C1143   1.452       .  S
C1139      C1140   1.420       .  A
C1139      C1145   1.451       .  S
C1140      C1141   1.419       .  A
C1141      C1142   1.416       .  A
C1141      C1144   1.451       .  S
C1142      C1146   1.450       .  S
C1143      N1150   1.157       .  T
C1144      N1151   1.157       .  T
C1145      N1149   1.157       .  T
C1146      N1152   1.157       .  T
C1147      N1156   1.157       .  T
C1148      N1154   1.157       .  T
C1157      C1158   1.413       .  A
C1157      C1162   1.415       .  A
C1157      C1175   1.449       .  S
C1158      C1159   1.414       .  A
C1158      C1163   1.506       .  S
C1159      C1160   1.415       .  A
C1159      C1164   1.450       .  S
C1160      C1161   1.413       .  A
C1160      C1176   1.449       .  S
C1161      C1162   1.414       .  A
C1162      C1165   1.450       .  S
C1163      C1166   1.411       .  A
C1163      C1170   1.414       .  A
C1164      N1181   1.157       .  T
C1165      N1183   1.157       .  T
C1166      C1167   1.413       .  A
C1166      C1171   1.450       .  S
C1167      C1168   1.418       .  A
C1167      C1173   1.452       .  S
C1168      C1169   1.413       .  A
C1169      C1170   1.417       .  A
C1169      C1172   1.449       .  S
C1170      C1174   1.449       .  S
C1171      N1178   1.157       .  T
C1172      N1179   1.157       .  T
C1173      N1177   1.157       .  T
C1174      N1180   1.157       .  T
C1175      N1184   1.157       .  T
C1176      N1182   1.157       .  T
C1185      C1186   1.411       .  A
C1185      C1190   1.413       .  A
C1185      C1203   1.450       .  S
C1186      C1187   1.412       .  A
C1186      C1191   1.501       .  S
C1187      C1188   1.413       .  A
C1187      C1192   1.450       .  S
C1188      C1189   1.414       .  A
C1188      C1204   1.450       .  S
C1189      C1190   1.414       .  A
C1190      C1193   1.450       .  S
C1191      C1194   1.409       .  A
C1191      C1198   1.413       .  A
C1192      N1209   1.157       .  T
C1193      N1211   1.157       .  T
C1194      C1195   1.410       .  A
C1194      C1199   1.452       .  S
C1195      C1196   1.413       .  A
C1195      C1201   1.447       .  S
C1196      C1197   1.413       .  A
C1197      C1198   1.417       .  A
C1197      C1200   1.450       .  S
C1198      C1202   1.449       .  S
C1199      N1206   1.157       .  T
C1200      N1207   1.157       .  T
C1201      N1205   1.156       .  T
C1202      N1208   1.157       .  T
C1203      N1212   1.157       .  T
C1204      N1210   1.157       .  T
C1213      C1214   1.412       .  A
C1213      C1218   1.417       .  A
C1213      C1231   1.451       .  S
C1214      C1215   1.413       .  A
C1214      C1219   1.509       .  S
C1215      C1216   1.417       .  A
C1215      C1220   1.449       .  S
C1216      C1217   1.414       .  A
C1216      C1232   1.449       .  S
C1217      C1218   1.416       .  A
C1218      C1221   1.448       .  S
C1219      C1222   1.414       .  A
C1219      C1226   1.414       .  A
C1220      N1237   1.157       .  T
C1221      N1239   1.156       .  T
C1222      C1223   1.416       .  A
C1222      C1227   1.449       .  S
C1223      C1224   1.413       .  A
C1223      C1229   1.450       .  S
C1224      C1225   1.412       .  A
C1225      C1226   1.414       .  A
C1225      C1228   1.450       .  S
C1226      C1230   1.450       .  S
C1227      N1234   1.157       .  T
C1228      N1235   1.157       .  T
C1229      N1233   1.157       .  T
C1230      N1236   1.157       .  T
C1231      N1240   1.157       .  T
C1232      N1238   1.157       .  T
C1241      C1242   1.412       .  A
C1241      C1246   1.410       .  A
C1241      C1259   1.450       .  S
C1242      C1243   1.414       .  A
C1242      C1247   1.502       .  S
C1243      C1244   1.414       .  A
C1243      C1248   1.450       .  S
C1244      C1245   1.413       .  A
C1244      C1260   1.450       .  S
C1245      C1246   1.411       .  A
C1246      C1249   1.450       .  S
C1247      C1250   1.412       .  A
C1247      C1254   1.412       .  A
C1248      N1265   1.157       .  T
C1249      N1267   1.157       .  T
C1250      C1251   1.412       .  A
C1250      C1255   1.452       .  S
C1251      C1252   1.413       .  A
C1251      C1257   1.449       .  S
C1252      C1253   1.415       .  A
C1253      C1254   1.415       .  A
C1253      C1256   1.451       .  S
C1254      C1258   1.450       .  S
C1255      N1262   1.157       .  T
C1256      N1263   1.157       .  T
C1257      N1261   1.157       .  T
C1258      N1264   1.157       .  T
C1259      N1268   1.157       .  T
C1260      N1266   1.157       .  T
C1269      C1270   1.414       .  A
C1269      C1274   1.413       .  A
C1269      C1287   1.450       .  S
C1270      C1271   1.413       .  A
C1270      C1275   1.503       .  S
C1271      C1272   1.412       .  A
C1271      C1276   1.450       .  S
C1272      C1273   1.412       .  A
C1272      C1288   1.451       .  S
C1273      C1274   1.412       .  A
C1274      C1277   1.450       .  S
C1275      C1278   1.415       .  A
C1275      C1282   1.412       .  A
C1276      N1293   1.157       .  T
C1277      N1295   1.157       .  T
C1278      C1279   1.416       .  A
C1278      C1283   1.449       .  S
C1279      C1280   1.411       .  A
C1279      C1285   1.449       .  S
C1280      C1281   1.412       .  A
C1281      C1282   1.410       .  A
C1281      C1284   1.450       .  S
C1282      C1286   1.451       .  S
C1283      N1290   1.157       .  T
C1284      N1291   1.157       .  T
C1285      N1289   1.157       .  T
C1286      N1292   1.157       .  T
C1287      N1296   1.157       .  T
C1288      N1294   1.157       .  T
C1297      C1298   1.413       .  A
C1297      C1302   1.414       .  A
C1297      C1315   1.449       .  S
C1298      C1299   1.410       .  A
C1298      C1303   1.496       .  S
C1299      C1300   1.409       .  A
C1299      C1304   1.452       .  S
C1300      C1301   1.416       .  A
C1300      C1316   1.452       .  S
C1301      C1302   1.411       .  A
C1302      C1305   1.449       .  S
C1303      C1306   1.413       .  A
C1303      C1310   1.411       .  A
C1304      N1321   1.157       .  T
C1305      N1323   1.157       .  T
C1306      C1307   1.409       .  A
C1306      C1311   1.450       .  S
C1307      C1308   1.411       .  A
C1307      C1313   1.451       .  S
C1308      C1309   1.411       .  A
C1309      C1310   1.411       .  A
C1309      C1312   1.450       .  S
C1310      C1314   1.449       .  S
C1311      N1318   1.157       .  T
C1312      N1319   1.157       .  T
C1313      N1317   1.157       .  T
C1314      N1320   1.157       .  T
C1315      N1324   1.157       .  T
C1316      N1322   1.157       .  T
C1325      C1326   1.414       .  A
C1325      C1330   1.417       .  A
C1325      C1343   1.449       .  S
C1326      C1327   1.413       .  A
C1326      C1331   1.510       .  S
C1327      C1328   1.415       .  A
C1327      C1332   1.451       .  S
C1328      C1329   1.414       .  A
C1328      C1344   1.449       .  S
C1329      C1330   1.413       .  A
C1330      C1333   1.450       .  S
C1331      C1334   1.414       .  A
C1331      C1338   1.413       .  A
C1332      N1349   1.157       .  T
C1333      N1351   1.157       .  T
C1334      C1335   1.416       .  A
C1334      C1339   1.451       .  S
C1335      C1336   1.413       .  A
C1335      C1341   1.449       .  S
C1336      C1337   1.414       .  A
C1337      C1338   1.417       .  A
C1337      C1340   1.449       .  S
C1338      C1342   1.449       .  S
C1339      N1346   1.157       .  T
C1340      N1347   1.157       .  T
C1341      N1345   1.157       .  T
C1342      N1348   1.157       .  T
C1343      N1352   1.157       .  T
C1344      N1350   1.156       .  T
C1353      C1354   1.409       .  A
C1353      C1358   1.413       .  A
C1353      C1371   1.451       .  S
C1354      C1355   1.409       .  A
C1354      C1359   1.500       .  S
C1355      C1356   1.413       .  A
C1355      C1360   1.451       .  S
C1356      C1357   1.422       .  A
C1356      C1372   1.450       .  S
C1357      C1358   1.420       .  A
C1358      C1361   1.451       .  S
C1359      C1362   1.413       .  A
C1359      C1366   1.411       .  A
C1360      N1377   1.157       .  T
C1361      N1379   1.158       .  T
C1362      C1363   1.412       .  A
C1362      C1367   1.450       .  S
C1363      C1364   1.411       .  A
C1363      C1369   1.450       .  S
C1364      C1365   1.414       .  A
C1365      C1366   1.412       .  A
C1365      C1368   1.450       .  S
C1366      C1370   1.450       .  S
C1367      N1374   1.157       .  T
C1368      N1375   1.157       .  T
C1369      N1373   1.157       .  T
C1370      N1376   1.157       .  T
C1371      N1380   1.157       .  T
C1372      N1378   1.157       .  T
C1381      C1382   1.411       .  A
C1381      C1386   1.413       .  A
C1381      C1399   1.450       .  S
C1382      C1383   1.412       .  A
C1382      C1387   1.502       .  S
C1383      C1384   1.413       .  A
C1383      C1388   1.450       .  S
C1384      C1385   1.413       .  A
C1384      C1400   1.450       .  S
C1385      C1386   1.413       .  A
C1386      C1389   1.450       .  S
C1387      C1390   1.411       .  A
C1387      C1394   1.410       .  A
C1388      N1405   1.157       .  T
C1389      N1407   1.157       .  T
C1390      C1391   1.413       .  A
C1390      C1395   1.450       .  S
C1391      C1392   1.414       .  A
C1391      C1397   1.449       .  S
C1392      C1393   1.418       .  A
C1393      C1394   1.414       .  A
C1393      C1396   1.451       .  S
C1394      C1398   1.450       .  S
C1395      N1402   1.157       .  T
C1396      N1403   1.157       .  T
C1397      N1401   1.157       .  T
C1398      N1404   1.157       .  T
C1399      N1408   1.157       .  T
C1400      N1406   1.157       .  T
C1409      C1410   1.413       .  A
C1409      C1414   1.412       .  A
C1409      C1427   1.450       .  S
C1410      C1411   1.412       .  A
C1410      C1415   1.498       .  S
C1411      C1412   1.409       .  A
C1411      C1416   1.452       .  S
C1412      C1413   1.414       .  A
C1412      C1428   1.452       .  S
C1413      C1414   1.411       .  A
C1414      C1417   1.450       .  S
C1415      C1418   1.412       .  A
C1415      C1422   1.412       .  A
C1416      N1433   1.157       .  T
C1417      N1435   1.157       .  T
C1418      C1419   1.410       .  A
C1418      C1423   1.450       .  S
C1419      C1420   1.412       .  A
C1419      C1425   1.450       .  S
C1420      C1421   1.414       .  A
C1421      C1422   1.410       .  A
C1421      C1424   1.451       .  S
C1422      C1426   1.451       .  S
C1423      N1430   1.157       .  T
C1424      N1431   1.157       .  T
C1425      N1429   1.157       .  T
C1426      N1432   1.157       .  T
C1427      N1436   1.157       .  T
C1428      N1434   1.157       .  T
C1437      C1438   1.412       .  A
C1437      C1442   1.415       .  A
C1437      C1455   1.449       .  S
C1438      C1439   1.414       .  A
C1438      C1443   1.507       .  S
C1439      C1440   1.415       .  A
C1439      C1444   1.450       .  S
C1440      C1441   1.413       .  A
C1440      C1456   1.450       .  S
C1441      C1442   1.414       .  A
C1442      C1445   1.450       .  S
C1443      C1446   1.409       .  A
C1443      C1450   1.414       .  A
C1444      N1461   1.157       .  T
C1445      N1463   1.157       .  T
C1446      C1447   1.413       .  A
C1446      C1451   1.451       .  S
C1447      C1448   1.418       .  A
C1447      C1453   1.448       .  S
C1448      C1449   1.416       .  A
C1449      C1450   1.418       .  A
C1449      C1452   1.450       .  S
C1450      C1454   1.449       .  S
C1451      N1458   1.157       .  T
C1452      N1459   1.158       .  T
C1453      N1457   1.156       .  T
C1454      N1460   1.157       .  T
C1455      N1464   1.157       .  T
C1456      N1462   1.157       .  T
C1465      C1466   1.410       .  A
C1465      C1470   1.415       .  A
C1465      C1483   1.450       .  S
C1466      C1467   1.410       .  A
C1466      C1471   1.504       .  S
C1467      C1468   1.415       .  A
C1467      C1472   1.451       .  S
C1468      C1469   1.422       .  A
C1468      C1484   1.450       .  S
C1469      C1470   1.419       .  A
C1470      C1473   1.451       .  S
C1471      C1474   1.412       .  A
C1471      C1478   1.412       .  A
C1472      N1489   1.157       .  T
C1473      N1491   1.157       .  T
C1474      C1475   1.412       .  A
C1474      C1479   1.450       .  S
C1475      C1476   1.414       .  A
C1475      C1481   1.450       .  S
C1476      C1477   1.415       .  A
C1477      C1478   1.414       .  A
C1477      C1480   1.450       .  S
C1478      C1482   1.449       .  S
C1479      N1486   1.157       .  T
C1480      N1487   1.157       .  T
C1481      N1485   1.157       .  T
C1482      N1488   1.157       .  T
C1483      N1492   1.157       .  T
C1484      N1490   1.157       .  T
C1493      C1494   1.412       .  A
C1493      C1498   1.412       .  A
C1493      C1511   1.450       .  S
C1494      C1495   1.411       .  A
C1494      C1499   1.501       .  S
C1495      C1496   1.413       .  A
C1495      C1500   1.450       .  S
C1496      C1497   1.414       .  A
C1496      C1512   1.451       .  S
C1497      C1498   1.415       .  A
C1498      C1501   1.451       .  S
C1499      C1502   1.410       .  A
C1499      C1506   1.412       .  A
C1500      N1517   1.157       .  T
C1501      N1519   1.157       .  T
C1502      C1503   1.412       .  A
C1502      C1507   1.451       .  S
C1503      C1504   1.416       .  A
C1503      C1509   1.451       .  S
C1504      C1505   1.416       .  A
C1505      C1506   1.415       .  A
C1505      C1508   1.451       .  S
C1506      C1510   1.450       .  S
C1507      N1514   1.157       .  T
C1508      N1515   1.157       .  T
C1509      N1513   1.157       .  T
C1510      N1516   1.157       .  T
C1511      N1520   1.157       .  T
C1512      N1518   1.157       .  T
C1521      C1522   1.413       .  A
C1521      C1526   1.414       .  A
C1521      C1539   1.450       .  S
C1522      C1523   1.411       .  A
C1522      C1527   1.501       .  S
C1523      C1524   1.410       .  A
C1523      C1528   1.450       .  S
C1524      C1525   1.412       .  A
C1524      C1540   1.451       .  S
C1525      C1526   1.412       .  A
C1526      C1529   1.449       .  S
C1527      C1530   1.410       .  A
C1527      C1534   1.410       .  A
C1528      N1545   1.157       .  T
C1529      N1547   1.157       .  T
C1530      C1531   1.414       .  A
C1530      C1535   1.451       .  S
C1531      C1532   1.418       .  A
C1531      C1537   1.450       .  S
C1532      C1533   1.422       .  A
C1533      C1534   1.413       .  A
C1533      C1536   1.452       .  S
C1534      C1538   1.451       .  S
C1535      N1542   1.157       .  T
C1536      N1543   1.157       .  T
C1537      N1541   1.157       .  T
C1538      N1544   1.157       .  T
C1539      N1548   1.157       .  T
C1540      N1546   1.157       .  T
C1549      C1550   1.410       .  A
C1549      C1554   1.408       .  A
C1549      C1567   1.450       .  S
C1550      C1551   1.411       .  A
C1550      C1555   1.490       .  S
C1551      C1552   1.407       .  A
C1551      C1556   1.450       .  S
C1552      C1553   1.410       .  A
C1552      C1568   1.450       .  S
C1553      C1554   1.411       .  A
C1554      C1557   1.450       .  S
C1555      C1558   1.407       .  A
C1555      C1562   1.410       .  A
C1556      N1573   1.157       .  T
C1557      N1575   1.157       .  T
C1558      C1559   1.408       .  A
C1558      C1563   1.452       .  S
C1559      C1560   1.419       .  A
C1559      C1565   1.452       .  S
C1560      C1561   1.415       .  A
C1561      C1562   1.411       .  A
C1561      C1564   1.450       .  S
C1562      C1566   1.451       .  S
C1563      N1570   1.157       .  T
C1564      N1571   1.157       .  T
C1565      N1569   1.157       .  T
C1566      N1572   1.157       .  T
C1567      N1576   1.157       .  T
C1568      N1574   1.157       .  T
C1577      C1578   1.408       .  A
C1577      C1582   1.413       .  A
C1577      C1595   1.452       .  S
C1578      C1579   1.411       .  A
C1578      C1583   1.502       .  S
C1579      C1580   1.415       .  A
C1579      C1584   1.451       .  S
C1580      C1581   1.419       .  A
C1580      C1596   1.450       .  S
C1581      C1582   1.424       .  A
C1582      C1585   1.450       .  S
C1583      C1586   1.412       .  A
C1583      C1590   1.413       .  A
C1584      N1601   1.157       .  T
C1585      N1603   1.157       .  T
C1586      C1587   1.413       .  A
C1586      C1591   1.450       .  S
C1587      C1588   1.413       .  A
C1587      C1593   1.450       .  S
C1588      C1589   1.412       .  A
C1589      C1590   1.411       .  A
C1589      C1592   1.450       .  S
C1590      C1594   1.451       .  S
C1591      N1598   1.157       .  T
C1592      N1599   1.157       .  T
C1593      N1597   1.157       .  T
C1594      N1600   1.157       .  T
C1595      N1604   1.157       .  T
C1596      N1602   1.157       .  T
C1605      C1606   1.410       .  A
C1605      C1610   1.417       .  A
C1605      C1623   1.450       .  S
C1606      C1607   1.409       .  A
C1606      C1611   1.505       .  S
C1607      C1608   1.415       .  A
C1607      C1612   1.451       .  S
C1608      C1609   1.423       .  A
C1608      C1624   1.450       .  S
C1609      C1610   1.420       .  A
C1610      C1613   1.449       .  S
C1611      C1614   1.413       .  A
C1611      C1618   1.413       .  A
C1612      N1629   1.157       .  T
C1613      N1631   1.157       .  T
C1614      C1615   1.416       .  A
C1614      C1619   1.449       .  S
C1615      C1616   1.414       .  A
C1615      C1621   1.449       .  S
C1616      C1617   1.412       .  A
C1617      C1618   1.412       .  A
C1617      C1620   1.450       .  S
C1618      C1622   1.450       .  S
C1619      N1626   1.157       .  T
C1620      N1627   1.157       .  T
C1621      N1625   1.157       .  T
C1622      N1628   1.157       .  T
C1623      N1632   1.157       .  T
C1624      N1630   1.157       .  T
C1633      C1634   1.410       .  A
C1633      C1638   1.415       .  A
C1633      C1651   1.450       .  S
C1634      C1635   1.409       .  A
C1634      C1639   1.501       .  S
C1635      C1636   1.412       .  A
C1635      C1640   1.452       .  S
C1636      C1637   1.421       .  A
C1636      C1652   1.451       .  S
C1637      C1638   1.419       .  A
C1638      C1641   1.450       .  S
C1639      C1642   1.413       .  A
C1639      C1646   1.411       .  A
C1640      N1657   1.157       .  T
C1641      N1659   1.157       .  T
C1642      C1643   1.415       .  A
C1642      C1647   1.450       .  S
C1643      C1644   1.413       .  A
C1643      C1649   1.450       .  S
C1644      C1645   1.412       .  A
C1645      C1646   1.410       .  A
C1645      C1648   1.450       .  S
C1646      C1650   1.450       .  S
C1647      N1654   1.157       .  T
C1648      N1655   1.157       .  T
C1649      N1653   1.157       .  T
C1650      N1656   1.157       .  T
C1651      N1660   1.157       .  T
C1652      N1658   1.157       .  T
C1661      C1662   1.413       .  A
C1661      C1666   1.412       .  A
C1661      C1679   1.451       .  S
C1662      C1663   1.413       .  A
C1662      C1667   1.504       .  S
C1663      C1664   1.415       .  A
C1663      C1668   1.450       .  S
C1664      C1665   1.415       .  A
C1664      C1680   1.450       .  S
C1665      C1666   1.415       .  A
C1666      C1669   1.451       .  S
C1667      C1670   1.414       .  A
C1667      C1674   1.411       .  A
C1668      N1685   1.157       .  T
C1669      N1687   1.157       .  T
C1670      C1671   1.418       .  A
C1670      C1675   1.449       .  S
C1671      C1672   1.414       .  A
C1671      C1677   1.449       .  S
C1672      C1673   1.414       .  A
C1673      C1674   1.410       .  A
C1673      C1676   1.451       .  S
C1674      C1678   1.451       .  S
C1675      N1682   1.157       .  T
C1676      N1683   1.157       .  T
C1677      N1681   1.157       .  T
C1678      N1684   1.157       .  T
C1679      N1688   1.157       .  T
C1680      N1686   1.157       .  T
C1689      C1690   1.409       .  A
C1689      C1694   1.411       .  A
C1689      C1707   1.451       .  S
C1690      C1691   1.413       .  A
C1690      C1695   1.502       .  S
C1691      C1692   1.416       .  A
C1691      C1696   1.450       .  S
C1692      C1693   1.415       .  A
C1692      C1708   1.450       .  S
C1693      C1694   1.418       .  A
C1694      C1697   1.451       .  S
C1695      C1698   1.412       .  A
C1695      C1702   1.412       .  A
C1696      N1713   1.157       .  T
C1697      N1715   1.157       .  T
C1698      C1699   1.413       .  A
C1698      C1703   1.449       .  S
C1699      C1700   1.413       .  A
C1699      C1705   1.449       .  S
C1700      C1701   1.413       .  A
C1701      C1702   1.412       .  A
C1701      C1704   1.450       .  S
C1702      C1706   1.451       .  S
C1703      N1710   1.157       .  T
C1704      N1711   1.157       .  T
C1705      N1709   1.157       .  T
C1706      N1712   1.157       .  T
C1707      N1716   1.157       .  T
C1708      N1714   1.157       .  T
C1717      C1718   1.409       .  A
C1717      C1722   1.410       .  A
C1717      C1735   1.452       .  S
C1718      C1719   1.412       .  A
C1718      C1723   1.499       .  S
C1719      C1720   1.414       .  A
C1719      C1724   1.450       .  S
C1720      C1721   1.415       .  A
C1720      C1736   1.450       .  S
C1721      C1722   1.419       .  A
C1722      C1725   1.451       .  S
C1723      C1726   1.412       .  A
C1723      C1730   1.412       .  A
C1724      N1741   1.157       .  T
C1725      N1743   1.157       .  T
C1726      C1727   1.411       .  A
C1726      C1731   1.450       .  S
C1727      C1728   1.412       .  A
C1727      C1733   1.451       .  S
C1728      C1729   1.411       .  A
C1729      C1730   1.411       .  A
C1729      C1732   1.450       .  S
C1730      C1734   1.450       .  S
C1731      N1738   1.157       .  T
C1732      N1739   1.157       .  T
C1733      N1737   1.157       .  T
C1734      N1740   1.157       .  T
C1735      N1744   1.157       .  T
C1736      N1742   1.157       .  T
C1745      C1746   1.409       .  A
C1745      C1750   1.411       .  A
C1745      C1763   1.452       .  S
C1746      C1747   1.412       .  A
C1746      C1751   1.501       .  S
C1747      C1748   1.416       .  A
C1747      C1752   1.449       .  S
C1748      C1749   1.413       .  A
C1748      C1764   1.449       .  S
C1749      C1750   1.415       .  A
C1750      C1753   1.448       .  S
C1751      C1754   1.411       .  A
C1751      C1758   1.414       .  A
C1752      N1769   1.157       .  T
C1753      N1771   1.156       .  T
C1754      C1755   1.411       .  A
C1754      C1759   1.449       .  S
C1755      C1756   1.412       .  A
C1755      C1761   1.450       .  S
C1756      C1757   1.410       .  A
C1757      C1758   1.412       .  A
C1757      C1760   1.450       .  S
C1758      C1762   1.450       .  S
C1759      N1766   1.157       .  T
C1760      N1767   1.157       .  T
C1761      N1765   1.157       .  T
C1762      N1768   1.157       .  T
C1763      N1772   1.157       .  T
C1764      N1770   1.157       .  T
C1773      C1774   1.411       .  A
C1773      C1778   1.413       .  A
C1773      C1791   1.450       .  S
C1774      C1775   1.414       .  A
C1774      C1779   1.507       .  S
C1775      C1776   1.418       .  A
C1775      C1780   1.449       .  S
C1776      C1777   1.412       .  A
C1776      C1792   1.449       .  S
C1777      C1778   1.415       .  A
C1778      C1781   1.451       .  S
C1779      C1782   1.413       .  A
C1779      C1786   1.414       .  A
C1780      N1797   1.157       .  T
C1781      N1799   1.157       .  T
C1782      C1783   1.415       .  A
C1782      C1787   1.449       .  S
C1783      C1784   1.412       .  A
C1783      C1789   1.449       .  S
C1784      C1785   1.414       .  A
C1785      C1786   1.415       .  A
C1785      C1788   1.450       .  S
C1786      C1790   1.450       .  S
C1787      N1794   1.157       .  T
C1788      N1795   1.157       .  T
C1789      N1793   1.157       .  T
C1790      N1796   1.157       .  T
C1791      N1800   1.157       .  T
C1792      N1798   1.157       .  T
C1801      C1802   1.411       .  A
C1801      C1806   1.413       .  A
C1801      C1819   1.451       .  S
C1802      C1803   1.413       .  A
C1802      C1807   1.505       .  S
C1803      C1804   1.416       .  A
C1803      C1808   1.450       .  S
C1804      C1805   1.415       .  A
C1804      C1820   1.450       .  S
C1805      C1806   1.416       .  A
C1806      C1809   1.449       .  S
C1807      C1810   1.413       .  A
C1807      C1814   1.414       .  A
C1808      N1825   1.157       .  T
C1809      N1827   1.156       .  T
C1810      C1811   1.414       .  A
C1810      C1815   1.449       .  S
C1811      C1812   1.412       .  A
C1811      C1817   1.450       .  S
C1812      C1813   1.412       .  A
C1813      C1814   1.413       .  A
C1813      C1816   1.450       .  S
C1814      C1818   1.450       .  S
C1815      N1822   1.157       .  T
C1816      N1823   1.157       .  T
C1817      N1821   1.157       .  T
C1818      N1824   1.157       .  T
C1819      N1828   1.157       .  T
C1820      N1826   1.157       .  T
C1829      C1830   1.414       .  A
C1829      C1834   1.412       .  A
C1829      C1847   1.450       .  S
C1830      C1831   1.413       .  A
C1830      C1835   1.500       .  S
C1831      C1832   1.410       .  A
C1831      C1836   1.451       .  S
C1832      C1833   1.412       .  A
C1832      C1848   1.450       .  S
C1833      C1834   1.412       .  A
C1834      C1837   1.450       .  S
C1835      C1838   1.414       .  A
C1835      C1842   1.412       .  A
C1836      N1853   1.157       .  T
C1837      N1855   1.157       .  T
C1838      C1839   1.413       .  A
C1838      C1843   1.450       .  S
C1839      C1840   1.411       .  A
C1839      C1845   1.449       .  S
C1840      C1841   1.414       .  A
C1841      C1842   1.409       .  A
C1841      C1844   1.453       .  S
C1842      C1846   1.451       .  S
C1843      N1850   1.157       .  T
C1844      N1851   1.157       .  T
C1845      N1849   1.157       .  T
C1846      N1852   1.157       .  T
C1847      N1856   1.157       .  T
C1848      N1854   1.157       .  T
C1857      C1858   1.413       .  A
C1857      C1862   1.412       .  A
C1857      C1875   1.450       .  S
C1858      C1859   1.411       .  A
C1858      C1863   1.500       .  S
C1859      C1860   1.411       .  A
C1859      C1864   1.451       .  S
C1860      C1861   1.415       .  A
C1860      C1876   1.451       .  S
C1861      C1862   1.411       .  A
C1862      C1865   1.450       .  S
C1863      C1866   1.412       .  A
C1863      C1870   1.413       .  A
C1864      N1881   1.157       .  T
C1865      N1883   1.157       .  T
C1866      C1867   1.413       .  A
C1866      C1871   1.450       .  S
C1867      C1868   1.412       .  A
C1867      C1873   1.449       .  S
C1868      C1869   1.412       .  A
C1869      C1870   1.411       .  A
C1869      C1872   1.450       .  S
C1870      C1874   1.450       .  S
C1871      N1878   1.157       .  T
C1872      N1879   1.157       .  T
C1873      N1877   1.157       .  T
C1874      N1880   1.157       .  T
C1875      N1884   1.157       .  T
C1876      N1882   1.157       .  T
C1885      C1886   1.410       .  A
C1885      C1890   1.415       .  A
C1885      C1903   1.450       .  S
C1886      C1887   1.407       .  A
C1886      C1891   1.496       .  S
C1887      C1888   1.409       .  A
C1887      C1892   1.453       .  S
C1888      C1889   1.421       .  A
C1888      C1904   1.451       .  S
C1889      C1890   1.418       .  A
C1890      C1893   1.450       .  S
C1891      C1894   1.412       .  A
C1891      C1898   1.411       .  A
C1892      N1909   1.157       .  T
C1893      N1911   1.157       .  T
C1894      C1895   1.409       .  A
C1894      C1899   1.450       .  S
C1895      C1896   1.411       .  A
C1895      C1901   1.451       .  S
C1896      C1897   1.411       .  A
C1897      C1898   1.410       .  A
C1897      C1900   1.450       .  S
C1898      C1902   1.450       .  S
C1899      N1906   1.157       .  T
C1900      N1907   1.157       .  T
C1901      N1905   1.157       .  T
C1902      N1908   1.157       .  T
C1903      N1912   1.157       .  T
C1904      N1910   1.157       .  T
C1913      C1914   1.413       .  A
C1913      C1918   1.412       .  A
C1913      C1931   1.450       .  S
C1914      C1915   1.413       .  A
C1914      C1919   1.499       .  S
C1915      C1916   1.409       .  A
C1915      C1920   1.451       .  S
C1916      C1917   1.411       .  A
C1916      C1932   1.450       .  S
C1917      C1918   1.412       .  A
C1918      C1921   1.450       .  S
C1919      C1922   1.409       .  A
C1919      C1926   1.411       .  A
C1920      N1937   1.157       .  T
C1921      N1939   1.157       .  T
C1922      C1923   1.412       .  A
C1922      C1927   1.452       .  S
C1923      C1924   1.421       .  A
C1923      C1929   1.451       .  S
C1924      C1925   1.417       .  A
C1925      C1926   1.413       .  A
C1925      C1928   1.450       .  S
C1926      C1930   1.451       .  S
C1927      N1934   1.157       .  T
C1928      N1935   1.157       .  T
C1929      N1933   1.157       .  T
C1930      N1936   1.157       .  T
C1931      N1940   1.157       .  T
C1932      N1938   1.157       .  T
C1941      C1942   1.412       .  A
C1941      C1946   1.412       .  A
C1941      C1959   1.450       .  S
C1942      C1943   1.411       .  A
C1942      C1947   1.499       .  S
C1943      C1944   1.411       .  A
C1943      C1948   1.450       .  S
C1944      C1945   1.411       .  A
C1944      C1960   1.450       .  S
C1945      C1946   1.412       .  A
C1946      C1949   1.450       .  S
C1947      C1950   1.411       .  A
C1947      C1954   1.409       .  A
C1948      N1965   1.157       .  T
C1949      N1967   1.157       .  T
C1950      C1951   1.413       .  A
C1950      C1955   1.450       .  S
C1951      C1952   1.415       .  A
C1951      C1957   1.450       .  S
C1952      C1953   1.420       .  A
C1953      C1954   1.411       .  A
C1953      C1956   1.452       .  S
C1954      C1958   1.451       .  S
C1955      N1962   1.157       .  T
C1956      N1963   1.158       .  T
C1957      N1961   1.157       .  T
C1958      N1964   1.157       .  T
C1959      N1968   1.157       .  T
C1960      N1966   1.157       .  T
C1969      C1970   1.411       .  A
C1969      C1974   1.411       .  A
C1969      C1987   1.450       .  S
C1970      C1971   1.412       .  A
C1970      C1975   1.498       .  S
C1971      C1972   1.411       .  A
C1971      C1976   1.450       .  S
C1972      C1973   1.412       .  A
C1972      C1988   1.450       .  S
C1973      C1974   1.412       .  A
C1974      C1977   1.450       .  S
C1975      C1978   1.410       .  A
C1975      C1982   1.408       .  A
C1976      N1993   1.157       .  T
C1977      N1995   1.157       .  T
C1978      C1979   1.415       .  A
C1978      C1983   1.451       .  S
C1979      C1980   1.419       .  A
C1979      C1985   1.450       .  S
C1980      C1981   1.419       .  A
C1981      C1982   1.410       .  A
C1981      C1984   1.451       .  S
C1982      C1986   1.452       .  S
C1983      N1990   1.157       .  T
C1984      N1991   1.157       .  T
C1985      N1989   1.157       .  T
C1986      N1992   1.157       .  T
C1987      N1996   1.157       .  T
C1988      N1994   1.157       .  T
C1997      C1998   1.409       .  A
C1997      C2002   1.411       .  A
C1997      C2015   1.452       .  S
C1998      C1999   1.410       .  A
C1998      C2003   1.496       .  S
C1999      C2000   1.412       .  A
C1999      C2004   1.450       .  S
C2000      C2001   1.415       .  A
C2000      C2016   1.451       .  S
C2001      C2002   1.420       .  A
C2002      C2005   1.452       .  S
C2003      C2006   1.411       .  A
C2003      C2010   1.411       .  A
C2004      N2021   1.157       .  T
C2005      N2023   1.157       .  T
C2006      C2007   1.409       .  A
C2006      C2011   1.450       .  S
C2007      C2008   1.411       .  A
C2007      C2013   1.450       .  S
C2008      C2009   1.412       .  A
C2009      C2010   1.412       .  A
C2009      C2012   1.450       .  S
C2010      C2014   1.450       .  S
C2011      N2018   1.157       .  T
C2012      N2019   1.157       .  T
C2013      N2017   1.157       .  T
C2014      N2020   1.157       .  T
C2015      N2024   1.157       .  T
C2016      N2022   1.157       .  T
C2025      C2026   1.410       .  A
C2025      C2030   1.408       .  A
C2025      C2043   1.451       .  S
C2026      C2027   1.411       .  A
C2026      C2031   1.494       .  S
C2027      C2028   1.411       .  A
C2027      C2032   1.450       .  S
C2028      C2029   1.411       .  A
C2028      C2044   1.449       .  S
C2029      C2030   1.412       .  A
C2030      C2033   1.451       .  S
C2031      C2034   1.410       .  A
C2031      C2038   1.408       .  A
C2032      N2049   1.157       .  T
C2033      N2051   1.157       .  T
C2034      C2035   1.412       .  A
C2034      C2039   1.450       .  S
C2035      C2036   1.415       .  A
C2035      C2041   1.450       .  S
C2036      C2037   1.420       .  A
C2037      C2038   1.409       .  A
C2037      C2040   1.452       .  S
C2038      C2042   1.452       .  S
C2039      N2046   1.157       .  T
C2040      N2047   1.157       .  T
C2041      N2045   1.157       .  T
C2042      N2048   1.157       .  T
C2043      N2052   1.157       .  T
C2044      N2050   1.157       .  T
C2053      C2054   1.408       .  A
C2053      C2058   1.408       .  A
C2053      C2071   1.450       .  S
C2054      C2055   1.408       .  A
C2054      C2059   1.494       .  S
C2055      C2056   1.411       .  A
C2055      C2060   1.450       .  S
C2056      C2057   1.424       .  A
C2056      C2072   1.450       .  S
C2057      C2058   1.422       .  A
C2058      C2061   1.452       .  S
C2059      C2062   1.406       .  A
C2059      C2066   1.408       .  A
C2060      N2077   1.157       .  T
C2061      N2079   1.158       .  T
C2062      C2063   1.411       .  A
C2062      C2067   1.452       .  S
C2063      C2064   1.424       .  A
C2063      C2069   1.452       .  S
C2064      C2065   1.422       .  A
C2065      C2066   1.412       .  A
C2065      C2068   1.451       .  S
C2066      C2070   1.452       .  S
C2067      N2074   1.157       .  T
C2068      N2075   1.157       .  T
C2069      N2073   1.158       .  T
C2070      N2076   1.157       .  T
C2071      N2080   1.157       .  T
C2072      N2078   1.158       .  T
C2081      C2082   1.411       .  A
C2081      C2086   1.413       .  A
C2081      C2099   1.450       .  S
C2082      C2083   1.412       .  A
C2082      C2087   1.502       .  S
C2083      C2084   1.412       .  A
C2083      C2088   1.450       .  S
C2084      C2085   1.414       .  A
C2084      C2100   1.450       .  S
C2085      C2086   1.415       .  A
C2086      C2089   1.451       .  S
C2087      C2090   1.409       .  A
C2087      C2094   1.408       .  A
C2088      N2105   1.157       .  T
C2089      N2107   1.157       .  T
C2090      C2091   1.413       .  A
C2090      C2095   1.452       .  S
C2091      C2092   1.423       .  A
C2091      C2097   1.451       .  S
C2092      C2093   1.425       .  A
C2093      C2094   1.414       .  A
C2093      C2096   1.452       .  S
C2094      C2098   1.452       .  S
C2095      N2102   1.157       .  T
C2096      N2103   1.158       .  T
C2097      N2101   1.157       .  T
C2098      N2104   1.157       .  T
C2099      N2108   1.157       .  T
C2100      N2106   1.157       .  T
C2109      C2110   1.413       .  A
C2109      C2114   1.414       .  A
C2109      C2127   1.449       .  S
C2110      C2111   1.412       .  A
C2110      C2115   1.504       .  S
C2111      C2112   1.413       .  A
C2111      C2116   1.450       .  S
C2112      C2113   1.413       .  A
C2112      C2128   1.450       .  S
C2113      C2114   1.412       .  A
C2114      C2117   1.449       .  S
C2115      C2118   1.409       .  A
C2115      C2122   1.411       .  A
C2116      N2133   1.157       .  T
C2117      N2135   1.157       .  T
C2118      C2119   1.415       .  A
C2118      C2123   1.452       .  S
C2119      C2120   1.424       .  A
C2119      C2125   1.452       .  S
C2120      C2121   1.417       .  A
C2121      C2122   1.416       .  A
C2121      C2124   1.449       .  S
C2122      C2126   1.450       .  S
C2123      N2130   1.157       .  T
C2124      N2131   1.157       .  T
C2125      N2129   1.157       .  T
C2126      N2132   1.157       .  T
C2127      N2136   1.157       .  T
C2128      N2134   1.157       .  T
