geometry optimzed in LAMMPS
_audit_creation_date              2020-11-30 
_audit_creation_method            'lammps2cif' 
_symmetry_space_group_name_H-M    'P1' 
_symmetry_Int_Tables_number       1 
_symmetry_cell_setting            triclinic 
loop_ 
_symmetry_equiv_pos_as_xyz 
  x,y,z 
_cell_length_a                    30.76402482812111 
_cell_length_b                    54.23819977098497 
_cell_length_c                    30.7976126362956 
_cell_angle_alpha                 61.36346942171755 
_cell_angle_beta                  89.9894019157 
_cell_angle_gamma                 89.99813600837648 
loop_ 
_atom_site_label 
_atom_site_type_symbol 
_atom_site_fract_x 
_atom_site_fract_y 
_atom_site_fract_z 
_atom_site_charge 
Zr1        Zr  0.93843583  0.49213260  0.44683474     2.17510
O2          O  0.88418187  0.01368103  0.38141615    -0.52460
O3          O  0.91582607  0.44481723  0.46705296    -0.75660
O4          O  0.96149441  0.49433947  0.36913891    -0.82440
O5          O  0.86333351  0.00068014  0.53777607    -0.84190
O6          O  0.03503051  0.49806457  0.36458028    -0.79810
O7          O  0.86375498  0.49687525  0.46744507    -0.91450
O8          O  0.95289324  0.41358746  0.53491496    -0.77410
O9          O  0.00376372  0.46538270  0.46868334    -0.86900
O10         O  0.93888048  0.46606102  0.53485264    -0.86590
O11         O  0.99577278  0.02637681  0.41355297    -0.73350
O12         O  0.93589068  0.02632485  0.47534455    -0.85480
Zr13       Zr  0.06121811  0.00668426  0.55428677     2.26420
Zr14       Zr  0.06135568  0.49912929  0.43780101     2.06270
Zr15       Zr  0.93808000  0.99992440  0.56356211     2.10050
Zr16       Zr  0.00444780  0.43976332  0.55656172     1.78760
O17         O  0.90145347  0.03857326  0.56759779    -0.94290
O18         O  0.04853185  0.40823943  0.53903789    -0.42100
O19         O  0.00352127  0.47285296  0.58725560    -0.78730
O20         O  0.06369256  0.47235334  0.52609743    -0.97420
O21         O  0.06017587  0.03291950  0.46646780    -0.90720
O22         O  0.99576337  0.03333636  0.53253315    -0.93560
C23         C  0.92444974  0.41969288  0.50080338     1.00190
C24         C  0.84407534  0.49951400  0.50180086     1.13120
C25         C  0.99788002  0.49661987  0.34698260     1.03900
O26         O  0.10117253  0.46121110  0.43463265    -0.95720
O27         O  0.13633858  0.50132007  0.46044663    -0.91460
O28         O  0.13612153  0.00670512  0.52920747    -0.84610
C29         C  0.15574450  0.00411210  0.49478558     1.10540
O30         O  0.94379064  0.08583296  0.37754384    -0.97690
Zr31       Zr  0.99465059  0.05924131  0.44471061     1.88940
O32         O  0.08553075  0.05377457  0.53318975    -0.74340
O33         O  0.09859049  0.03603765  0.36641361    -0.53600
O34         O  0.03518315  0.08813117  0.36910061    -0.98280
O35         O  0.95022341  0.09187679  0.45918885    -0.55500
O36         O  0.04613196  0.08503408  0.46739689    -0.74860
C37         C  0.07593854  0.07891184  0.50014985     0.97490
O38         O  0.10973946  0.47992887  0.62422899    -0.63680
O39         O  0.90020934  0.46392696  0.63559535    -0.58480
O40         O  0.03897382  0.00628819  0.63055139    -0.95160
O41         O  0.96587961  0.99946086  0.63767834    -0.93590
O42         O  0.96639984  0.41043865  0.63375031    -0.93940
O43         O  0.05439773  0.41154346  0.62347901    -0.92730
C44         C  0.00286828  0.00245586  0.65396894     1.16330
H45         H  0.91382009  0.45391484  0.54723033     0.32270
H46         H  0.09052134  0.46185836  0.53649107     0.43130
H47         H  0.99486923  0.04564685  0.54705244     0.36650
H48         H  0.99359843  0.03688744  0.37794748     0.33130
H49         H  0.03660038  0.38927973  0.56079703     0.24920
H50         H  0.11302704  0.02620016  0.35032813     0.30860
H51         H  0.03731373  0.10679354  0.36738581     0.36770
H52         H  0.96582483  0.39151846  0.63637153     0.31230
H53         H  0.87699119  0.47418159  0.64258317     0.30100
H54         H  0.88498453  0.02957000  0.59905994     0.31780
H55         H  0.96544755  0.11014822  0.44152024     0.30750
H56         H  0.06738205  0.42498667  0.63294848     0.34750
H57         H  0.09074268  0.46668528  0.65136768     0.27480
H58         H  0.87826187  0.99972610  0.37008387     0.31720
H59         H  0.95324776  0.10567711  0.36266526     0.34570
H60         H  0.88457228  0.45245288  0.62349813     0.27180
H61         H  0.12667946  0.46753928  0.61517997     0.40050
H62         H  0.07881813  0.45032253  0.42796701     0.30100
H63         H  0.03993310  0.41230541  0.50527659     0.37720
H64         H  0.95397579  0.08626938  0.49462706     0.29570
H65         H  0.07513457  0.04713287  0.34325727     0.29630
H66         H  0.89921150  0.02940403  0.35338165     0.29900
Zr67       Zr  0.43887918  0.49280060  0.44572536     2.17510
O68         O  0.38606047  0.01598198  0.37916901    -0.52460
O69         O  0.41573217  0.44579851  0.46475000    -0.75660
O70         O  0.46260804  0.49489209  0.36841909    -0.82440
O71         O  0.36313180  0.99993479  0.53729034    -0.84190
O72         O  0.53612171  0.49900018  0.36398777    -0.79810
O73         O  0.36390920  0.49684441  0.46627609    -0.91450
O74         O  0.45510029  0.41420689  0.53003204    -0.77410
O75         O  0.50452286  0.46636799  0.46681961    -0.86900
O76         O  0.43924415  0.46578175  0.53360217    -0.86590
O77         O  0.49596097  0.02724961  0.41357680    -0.73350
O78         O  0.43564025  0.02616525  0.47598583    -0.85480
Zr79       Zr  0.56078796  0.00607320  0.55534630     2.26420
Zr80       Zr  0.56183988  0.50032018  0.43717771     2.06270
Zr81       Zr  0.43765432  0.99881882  0.56406306     2.10050
Zr82       Zr  0.50510304  0.43979596  0.55455573     1.78760
O83         O  0.39964811  0.03633110  0.57045431    -0.94290
O84         O  0.55103338  0.40927683  0.53638311    -0.42100
O85         O  0.50337276  0.47199207  0.58716045    -0.78730
O86         O  0.56404536  0.47259236  0.52533146    -0.97420
O87         O  0.55996029  0.03327121  0.46764923    -0.90720
O88         O  0.49507565  0.03245382  0.53419326    -0.93560
C89         C  0.42562457  0.42054257  0.49691941     1.00190
C90         C  0.34404722  0.49909959  0.50091657     1.13120
C91         C  0.49910994  0.49725501  0.34643631     1.03900
O92         O  0.60360423  0.46376271  0.43169474    -0.95720
O93         O  0.63657701  0.50241912  0.46061323    -0.91460
O94         O  0.63596412  0.00641169  0.53076564    -0.84610
C95         C  0.65578447  0.00453465  0.49573542     1.10540
O96         O  0.44375842  0.08656224  0.37922603    -0.97690
Zr97       Zr  0.49413889  0.05928131  0.44651075     1.88940
O98         O  0.58494232  0.05288966  0.53593411    -0.74340
O99         O  0.59757074  0.03853191  0.36628141    -0.53600
O100        O  0.53493983  0.08913161  0.37164366    -0.98280
O101        O  0.44896407  0.09104412  0.46253482    -0.55500
O102        O  0.54508829  0.08447343  0.47096787    -0.74860
C103        C  0.57500726  0.07811755  0.50364694     0.97490
O104        O  0.60864944  0.47869245  0.62559619    -0.63680
O105        O  0.40048979  0.46158414  0.63513120    -0.58480
O106        O  0.53779429  0.00535134  0.63158834    -0.95160
O107        O  0.46474133  0.99828225  0.63846998    -0.93590
O108        O  0.46565797  0.40926813  0.63001881    -0.93940
O109        O  0.55373486  0.41104277  0.62257087    -0.92730
C110        C  0.50158409  0.00142440  0.65484466     1.16330
H111        H  0.41431968  0.45348402  0.54552936     0.32270
H112        H  0.59094780  0.46216655  0.53548875     0.43130
H113        H  0.49391412  0.04445026  0.54932909     0.36650
H114        H  0.49383261  0.03801198  0.37799118     0.33130
H115        H  0.53921830  0.39015996  0.55716322     0.24920
H116        H  0.61327836  0.02926155  0.34997251     0.30860
H117        H  0.53690929  0.10754034  0.37094548     0.36770
H118        H  0.46585719  0.39060283  0.63158061     0.31230
H119        H  0.37782895  0.47138922  0.64393498     0.30100
H120        H  0.38213817  0.02661749  0.60106750     0.31780
H121        H  0.46450880  0.10925627  0.44658007     0.30750
H122        H  0.56806182  0.42451933  0.63105656     0.34750
H123        H  0.58936540  0.46539495  0.65232417     0.27480
H124        H  0.37952123  0.00236743  0.36723532     0.31720
H125        H  0.45283078  0.10641172  0.36566491     0.34570
H126        H  0.38411311  0.45095060  0.62185347     0.27180
H127        H  0.62561104  0.46642499  0.61627801     0.40050
H128        H  0.58170815  0.45213959  0.42627146     0.30100
H129        H  0.54329503  0.41379183  0.50216473     0.37720
H130        H  0.45167880  0.08457185  0.49840368     0.29570
H131        H  0.57375582  0.04903720  0.34314455     0.29630
H132        H  0.40205770  0.03145716  0.35173577     0.29900
Zr133      Zr  0.18796623  0.24314011  0.44551122     2.17510
O134        O  0.13512849  0.26646139  0.37902175    -0.52460
O135        O  0.16427867  0.19612490  0.46521706    -0.75660
O136        O  0.21111265  0.24471408  0.36851993    -0.82440
O137        O  0.11269403  0.25061350  0.53706783    -0.84190
O138        O  0.28475411  0.24790761  0.36440796    -0.79810
O139        O  0.11318936  0.24721509  0.46634938    -0.91450
O140        O  0.20456610  0.16458955  0.52963719    -0.77410
O141        O  0.25345515  0.21654523  0.46666828    -0.86900
O142        O  0.18853530  0.21648260  0.53341546    -0.86590
O143        O  0.24527644  0.27739640  0.41261243    -0.73350
O144        O  0.18517078  0.27686318  0.47497753    -0.85480
Zr145      Zr  0.31044307  0.25687445  0.55396648     2.26420
Zr146      Zr  0.31100625  0.25031993  0.43646757     2.06270
Zr147      Zr  0.18737143  0.24989947  0.56307017     2.10050
Zr148      Zr  0.25421777  0.19032338  0.55440100     1.78760
O149        O  0.15037087  0.28821739  0.56783950    -0.94290
O150        O  0.30065584  0.15972961  0.53695702    -0.42100
O151        O  0.25290600  0.22289613  0.58625814    -0.78730
O152        O  0.31331015  0.22301880  0.52470484    -0.97420
O153        O  0.30950607  0.28362328  0.46618178    -0.90720
O154        O  0.24490992  0.28343027  0.53251252    -0.93560
C155        C  0.17463503  0.17088080  0.49700141     1.00190
C156        C  0.09347632  0.24956389  0.50096076     1.13120
C157        C  0.24757531  0.24640518  0.34690690     1.03900
O158        O  0.35317308  0.21376064  0.43145355    -0.95720
O159        O  0.38590552  0.25255840  0.45941419    -0.91460
O160        O  0.38548142  0.25712950  0.52899951    -0.84610
C161        C  0.40521692  0.25497435  0.49419298     1.10540
O162        O  0.19128601  0.33630707  0.37949217    -0.97690
Zr163      Zr  0.24386101  0.30982278  0.44470714     1.88940
O164        O  0.33468152  0.30385019  0.53358311    -0.74340
O165        O  0.34593963  0.28841254  0.36467513    -0.53600
O166        O  0.28276915  0.33909398  0.36804250    -0.98280
O167        O  0.20120673  0.34264191  0.46052556    -0.55500
O168        O  0.29656342  0.33521670  0.46669510    -0.74860
C169        C  0.32588896  0.32899258  0.49997149     0.97490
O170        O  0.35869545  0.22983748  0.62401680    -0.63680
O171        O  0.14973507  0.21347132  0.63477468    -0.58480
O172        O  0.28786248  0.25621553  0.63041100    -0.95160
O173        O  0.21478684  0.24929699  0.63738615    -0.93590
O174        O  0.21423037  0.15989993  0.62949310    -0.93940
O175        O  0.30228030  0.16173480  0.62315325    -0.92730
C176        C  0.25169422  0.25232638  0.65376608     1.16330
H177        H  0.16357839  0.20422600  0.54557447     0.32270
H178        H  0.34018308  0.21256397  0.53494273     0.43130
H179        H  0.24395921  0.29556723  0.54737499     0.36650
H180        H  0.24306730  0.28795834  0.37701034     0.33130
H181        H  0.28896125  0.14060015  0.55792127     0.24920
H182        H  0.36206288  0.27898888  0.34891503     0.30860
H183        H  0.28525729  0.35766473  0.36663571     0.36770
H184        H  0.21474218  0.14117937  0.63128406     0.31230
H185        H  0.12638198  0.22352787  0.64203580     0.30100
H186        H  0.13293405  0.27894444  0.59857779     0.31780
H187        H  0.21597677  0.36098247  0.44148730     0.30750
H188        H  0.31800298  0.17543573  0.62997538     0.34750
H189        H  0.33959573  0.21648459  0.65090469     0.27480
H190        H  0.12818349  0.25278920  0.36733444     0.31720
H191        H  0.20096160  0.35613013  0.36389146     0.34570
H192        H  0.13425936  0.20209210  0.62236451     0.27180
H193        H  0.37577489  0.21759280  0.61474850     0.40050
H194        H  0.33138747  0.20183039  0.42670558     0.30100
H195        H  0.29305135  0.16405769  0.50279824     0.37720
H196        H  0.20667935  0.33744142  0.49553261     0.29570
H197        H  0.32194665  0.29843888  0.34142741     0.29630
H198        H  0.15124952  0.28176703  0.35143853     0.29900
Zr199      Zr  0.68820619  0.24227420  0.44640436     2.17510
O200        O  0.63471534  0.26429298  0.38024011    -0.52460
O201        O  0.66440808  0.19505295  0.46754158    -0.75660
O202        O  0.71153994  0.24396237  0.36920184    -0.82440
O203        O  0.61272197  0.25084628  0.53683351    -0.84190
O204        O  0.78507245  0.24775751  0.36469191    -0.79810
O205        O  0.61340206  0.24729527  0.46627320    -0.91450
O206        O  0.70403420  0.16361613  0.53276336    -0.77410
O207        O  0.75340797  0.21536049  0.46840602    -0.86900
O208        O  0.68843961  0.21600687  0.53437137    -0.86590
O209        O  0.74577640  0.27637247  0.41348541    -0.73350
O210        O  0.68578354  0.27640341  0.47503793    -0.85480
Zr211      Zr  0.81058664  0.25620829  0.55482689     2.26420
Zr212      Zr  0.81118404  0.24896852  0.43791322     2.06270
Zr213      Zr  0.68737637  0.24976417  0.56323695     2.10050
Zr214      Zr  0.75397948  0.18963788  0.55629007     1.78760
O215        O  0.64958266  0.28777983  0.56820445    -0.94290
O216        O  0.79985777  0.15834432  0.54003545    -0.42100
O217        O  0.75269837  0.22253855  0.58737409    -0.78730
O218        O  0.81330950  0.22208539  0.52621684    -0.97420
O219        O  0.81015154  0.28258658  0.46699492    -0.90720
O220        O  0.74531077  0.28301408  0.53268928    -0.93560
C221        C  0.67428607  0.16985420  0.49999529     1.00670
C222        C  0.59358393  0.24986486  0.50062115     1.13120
C223        C  0.74795872  0.24618794  0.34713334     1.03900
O224        O  0.85129679  0.21109584  0.43491716    -0.95720
O225        O  0.88597727  0.25120061  0.46097364    -0.91460
O226        O  0.88555213  0.25654479  0.52979010    -0.84610
C227        C  0.90525981  0.25400872  0.49535956     1.10540
O228        O  0.69383495  0.33625163  0.37830730    -0.97690
Zr229      Zr  0.74488687  0.30912428  0.44491513     1.88940
O230        O  0.83418126  0.30307062  0.53584219    -0.74340
O231        O  0.84847530  0.28586439  0.36656424    -0.53600
O232        O  0.78511525  0.33777991  0.36895510    -0.98280
O233        O  0.70148411  0.34204557  0.45970746    -0.55500
O234        O  0.79741125  0.33440264  0.46768104    -0.74860
C235        C  0.82586200  0.32819596  0.50187994     0.97490
O236        O  0.85901759  0.22906689  0.62463562    -0.63680
O237        O  0.65029910  0.21298282  0.63500696    -0.58480
O238        O  0.78792863  0.25558736  0.63104061    -0.95160
O239        O  0.71453714  0.25015866  0.63680546    -0.93590
O240        O  0.71397851  0.15993830  0.63180814    -0.93940
O241        O  0.80215282  0.16126537  0.62507893    -0.92730
C242        C  0.75157689  0.25262612  0.65359419     1.16330
H243        H  0.66336584  0.20386174  0.54658885     0.32270
H244        H  0.84010641  0.21155858  0.53668256     0.43130
H245        H  0.74438073  0.29526934  0.54731542     0.36650
H246        H  0.74371176  0.28689124  0.37787008     0.33130
H247        H  0.78776976  0.13934859  0.56117915     0.24920
H248        H  0.86312378  0.27599636  0.35066060     0.30860
H249        H  0.78829041  0.35629566  0.36762807     0.36770
H250        H  0.71439104  0.14103410  0.63435374     0.31230
H251        H  0.62813358  0.22303159  0.64391141     0.30100
H252        H  0.63200093  0.27835403  0.59881220     0.31780
H253        H  0.71762513  0.36002182  0.44316633     0.30750
H254        H  0.81699060  0.17498233  0.63257695     0.34750
H255        H  0.83992537  0.21594723  0.65179849     0.27480
H256        H  0.62846303  0.25032806  0.36901858     0.31720
H257        H  0.70377218  0.35600213  0.36341066     0.34570
H258        H  0.63332453  0.20236948  0.62214042     0.27180
H259        H  0.87558275  0.21659569  0.61545739     0.40050
H260        H  0.82916211  0.20041432  0.42744549     0.30100
H261        H  0.79240847  0.16252672  0.50591310     0.37720
H262        H  0.70441688  0.33592497  0.49543157     0.29570
H263        H  0.82505248  0.29687083  0.34325990     0.29630
H264        H  0.65023102  0.27978203  0.35231350     0.29900
Zr265      Zr  0.93870246  0.00733676  0.05366004     2.17510
O266        O  0.88465492  0.48580035  0.11935030    -0.52460
O267        O  0.91470956  0.05457013  0.03226008    -0.75660
O268        O  0.96160836  0.00559829  0.13098766    -0.82440
O269        O  0.86388801  0.49923694  0.96218969    -0.84190
O270        O  0.03524139  0.00269026  0.13515153    -0.79810
O271        O  0.86420069  0.00189509  0.03361004    -0.91450
O272        O  0.95429597  0.08597577  0.96695971    -0.77410
O273        O  0.00391329  0.03424542  0.03188753    -0.86900
O274        O  0.93934433  0.03342570  0.96567088    -0.86590
O275        O  0.99626441  0.47328315  0.08711142    -0.73350
O276        O  0.93648135  0.47306955  0.02535049    -0.85480
Zr277      Zr  0.06197991  0.49292461  0.94645219     2.26420
Zr278      Zr  0.06172299  0.00066569  0.06281329     2.06270
Zr279      Zr  0.93877233  0.49949844  0.93715046     2.10050
Zr280      Zr  0.00482394  0.05982282  0.94403573     1.78760
O281        O  0.90147523  0.46092304  0.93355546    -0.94290
O282        O  0.05023741  0.09117557  0.96061909    -0.42100
O283        O  0.00414531  0.02666612  0.91344224    -0.78730
O284        O  0.06417264  0.02733924  0.97450314    -0.97420
O285        O  0.06087636  0.46679716  0.03430117    -0.90720
O286        O  0.99660146  0.46619148  0.96828604    -0.93560
C287        C  0.92448532  0.07977008  0.99971458     1.00190
C288        C  0.84458920  0.99983359  0.99866345     1.13120
C289        C  0.99798174  0.00394705  0.15274857     1.03900
O290        O  0.10233953  0.03807119  0.06681129    -0.95720
O291        O  0.13678462  0.99893716  0.03986175    -0.91460
O292        O  0.13683262  0.49264333  0.97202048    -0.84610
C293        C  0.15631855  0.49570117  0.00604104     1.10540
O294        O  0.94507251  0.41365580  0.12375526    -0.97690
Zr295      Zr  0.99547138  0.44033541  0.05610026     1.88940
O296        O  0.08630894  0.44584189  0.96745424    -0.74340
O297        O  0.09786146  0.46330258  0.13454380    -0.53600
O298        O  0.03640391  0.41145796  0.13137648    -0.98280
O299        O  0.95084574  0.40770702  0.04182545    -0.55500
O300        O  0.04673274  0.41456472  0.03308337    -0.74860
C301        C  0.07658573  0.42069632  0.00036479     0.97490
O302        O  0.11073075  0.01973137  0.87678014    -0.63680
O303        O  0.90189301  0.03564069  0.86443714    -0.58480
O304        O  0.03978332  0.49327625  0.87013046    -0.95160
O305        O  0.96646412  0.49908391  0.86381537    -0.93590
O306        O  0.96537557  0.08930086  0.86798922    -0.93940
O307        O  0.05345311  0.08811826  0.87566443    -0.92730
C308        C  0.00351892  0.49643124  0.84726926     1.16330
H309        H  0.91427445  0.04555416  0.95321294     0.32270
H310        H  0.09096323  0.03787867  0.96408535     0.43130
H311        H  0.99577134  0.45384060  0.95384660     0.36650
H312        H  0.99407446  0.46285565  0.12272620     0.33130
H313        H  0.03832847  0.11017679  0.93912654     0.24920
H314        H  0.11300843  0.47302132  0.15040594     0.30860
H315        H  0.03840491  0.39278838  0.13310049     0.36770
H316        H  0.96540984  0.10822266  0.86537459     0.31230
H317        H  0.87860883  0.02550796  0.85726097     0.30100
H318        H  0.88516450  0.46991574  0.90199114     0.31780
H319        H  0.96622154  0.38947493  0.05913756     0.30750
H320        H  0.06807639  0.07440353  0.86798884     0.34750
H321        H  0.09178152  0.03290512  0.84951830     0.27480
H322        H  0.87851796  0.49986335  0.13037878     0.31720
H323        H  0.95439411  0.39380043  0.13829504     0.34570
H324        H  0.88629943  0.04729722  0.87618295     0.27180
H325        H  0.12742648  0.03217128  0.88591672     0.40050
H326        H  0.08007371  0.04960168  0.07194730     0.30100
H327        H  0.04231032  0.08712719  0.99455467     0.37720
H328        H  0.95423540  0.41344084  0.00629214     0.29570
H329        H  0.07411157  0.45272213  0.15773267     0.29630
H330        H  0.89983063  0.47023687  0.14749439     0.29900
Zr331      Zr  0.43953808  0.00705554  0.05449139     2.17510
O332        O  0.38702340  0.48341699  0.12124083    -0.52460
O333        O  0.41665865  0.05407984  0.03555560    -0.75660
O334        O  0.46302879  0.00540353  0.13142019    -0.82440
O335        O  0.36365585  0.49873258  0.96433267    -0.84190
O336        O  0.53661412  0.00180731  0.13557211    -0.79810
O337        O  0.36445777  0.00361325  0.03362186    -0.91450
O338        O  0.45453016  0.08553327  0.96863139    -0.77410
O339        O  0.50495308  0.03372419  0.03278315    -0.86900
O340        O  0.43959533  0.03365892  0.96658733    -0.86590
O341        O  0.49692682  0.47284287  0.08691489    -0.73350
O342        O  0.43653194  0.47327146  0.02515865    -0.85480
Zr343      Zr  0.56139000  0.49360514  0.94513163     2.26420
Zr344      Zr  0.56256784  0.00000150  0.06278037     2.06270
Zr345      Zr  0.43814366  0.50022427  0.93701402     2.10050
Zr346      Zr  0.50523615  0.05990152  0.94499864     1.78760
O347        O  0.39950770  0.46286138  0.93078197    -0.94290
O348        O  0.55027458  0.09084665  0.96302098    -0.42100
O349        O  0.50359050  0.02736580  0.91311024    -0.78730
O350        O  0.56448645  0.02736268  0.97452529    -0.97420
O351        O  0.56093524  0.46676944  0.03290379    -0.90720
O352        O  0.49598057  0.46689879  0.96705284    -0.93560
C353        C  0.42578184  0.07927607  0.00247684     1.00190
C354        C  0.34459346  0.00049257  0.99987504     1.13120
C355        C  0.49951660  0.00340280  0.15317155     1.03900
O356        O  0.60420002  0.03705881  0.06676046    -0.95720
O357        O  0.63729111  0.99738641  0.03967049    -0.91460
O358        O  0.63654640  0.49366828  0.96922883    -0.84610
C359        C  0.65640680  0.49537732  0.00437974     1.10540
O360        O  0.44607340  0.41297090  0.12308868    -0.97690
Zr361      Zr  0.49542323  0.44044631  0.05476164     1.88940
O362        O  0.58591374  0.44680553  0.96492285    -0.74340
O363        O  0.59848289  0.46232542  0.13428678    -0.53600
O364        O  0.53714898  0.41110866  0.12914133    -0.98280
O365        O  0.44994093  0.40840573  0.03982133    -0.55500
O366        O  0.54619461  0.41524581  0.03008813    -0.74860
C367        C  0.57604746  0.42158908  0.99732555     0.97490
O368        O  0.60898597  0.02100001  0.87459198    -0.63680
O369        O  0.40148287  0.03765036  0.86577046    -0.58480
O370        O  0.53836706  0.49392677  0.86924522    -0.95160
O371        O  0.46497785  0.49948983  0.86357664    -0.93590
O372        O  0.46632828  0.09012484  0.86895532    -0.93940
O373        O  0.55430699  0.08850955  0.87734182    -0.92730
C374        C  0.50194775  0.49685818  0.84682128     1.16330
H375        H  0.41456957  0.04586082  0.95461792     0.32270
H376        H  0.59131524  0.03786242  0.96414929     0.43130
H377        H  0.49491688  0.45472866  0.95225816     0.36650
H378        H  0.49488295  0.46222870  0.12252531     0.33130
H379        H  0.53838848  0.10989493  0.94184384     0.24920
H380        H  0.61389630  0.47188469  0.15026737     0.30860
H381        H  0.53931405  0.39264968  0.13005953     0.36770
H382        H  0.46624844  0.10885186  0.86714741     0.31230
H383        H  0.38010461  0.02783302  0.85542292     0.30100
H384        H  0.38150055  0.47266121  0.90059145     0.31780
H385        H  0.46611636  0.39042391  0.05462979     0.30750
H386        H  0.56807519  0.07506690  0.86838132     0.34750
H387        H  0.58956852  0.03411377  0.84782310     0.27480
H388        H  0.38007711  0.49699372  0.13314345     0.31720
H389        H  0.45522177  0.39315327  0.13637590     0.34570
H390        H  0.38358437  0.04754337  0.87932217     0.27180
H391        H  0.62575982  0.03345960  0.88361631     0.40050
H392        H  0.58231751  0.04858492  0.07246492     0.30100
H393        H  0.54213604  0.08649866  0.99705662     0.37720
H394        H  0.45138436  0.41520729  0.00375816     0.29570
H395        H  0.57469776  0.45181002  0.15747670     0.29630
H396        H  0.40332472  0.46812236  0.14863303     0.29900
Zr397      Zr  0.18815395  0.25638587  0.05472064     2.17510
O398        O  0.13547802  0.23296833  0.12137841    -0.52460
O399        O  0.16438235  0.30340455  0.03495249    -0.75660
O400        O  0.21142216  0.25488070  0.13166809    -0.82440
O401        O  0.11281424  0.24873873  0.96338595    -0.84190
O402        O  0.28488004  0.25036513  0.13673150    -0.79810
O403        O  0.11333333  0.25234839  0.03390833    -0.91450
O404        O  0.20486224  0.33494277  0.97071240    -0.77410
O405        O  0.25360853  0.28302140  0.03342829    -0.86900
O406        O  0.18861380  0.28296378  0.96680360    -0.86590
O407        O  0.24551076  0.22214739  0.08749970    -0.73350
O408        O  0.18541957  0.22261083  0.02533083    -0.85480
Zr409      Zr  0.31053785  0.24272685  0.94604501     2.26420
Zr410      Zr  0.31120120  0.24926665  0.06353474     2.06270
Zr411      Zr  0.18745779  0.24950138  0.93721804     2.10050
Zr412      Zr  0.25422907  0.30919658  0.94566319     1.78760
O413        O  0.14988922  0.21126772  0.93274251    -0.94290
O414        O  0.30096615  0.33986391  0.96258331    -0.42100
O415        O  0.25289890  0.27661751  0.91380039    -0.78730
O416        O  0.31340404  0.27657196  0.97529485    -0.97420
O417        O  0.30974868  0.21596698  0.03383037    -0.90720
O418        O  0.24509952  0.21607220  0.96771611    -0.93560
C419        C  0.17486136  0.32865053  0.00328140     1.00190
C420        C  0.09360665  0.24989036  0.99941351     1.13120
C421        C  0.24780134  0.25230330  0.15396723     1.03900
O422        O  0.35206127  0.28641193  0.06811745    -0.95720
O423        O  0.38607106  0.24711099  0.04042224    -0.91460
O424        O  0.38559373  0.24244726  0.97092816    -0.84610
C425        C  0.40535131  0.24465725  0.00566022     1.10540
O426        O  0.19110422  0.16317251  0.12010520    -0.97690
Zr427      Zr  0.24417780  0.18969555  0.05550602     1.88940
O428        O  0.33449521  0.19578335  0.96598197    -0.74340
O429        O  0.34762647  0.21166159  0.13467904    -0.53600
O430        O  0.28263375  0.16062493  0.13258682    -0.98280
O431        O  0.20234677  0.15661187  0.03959407    -0.55500
O432        O  0.29746934  0.16444129  0.03392074    -0.74860
C433        C  0.32625941  0.17067272  0.00008254     0.97490
O434        O  0.35877891  0.26984836  0.87600556    -0.63680
O435        O  0.15028088  0.28609030  0.86533453    -0.58480
O436        O  0.28801198  0.24338468  0.86965200    -0.95160
O437        O  0.21470076  0.24926088  0.86347640    -0.93590
O438        O  0.21379665  0.33957378  0.87092265    -0.93940
O439        O  0.30189282  0.33780600  0.87647716    -0.92730
C440        C  0.25172171  0.24659953  0.84684127     1.16330
H441        H  0.16363930  0.29520443  0.95468071     0.32270
H442        H  0.34025541  0.28705074  0.96500195     0.43130
H443        H  0.24417135  0.20391696  0.95289163     0.36650
H444        H  0.24331596  0.21154255  0.12309773     0.33130
H445        H  0.28905448  0.35896182  0.94189728     0.24920
H446        H  0.36281422  0.22121636  0.15081062     0.30860
H447        H  0.28561104  0.14207865  0.13399052     0.36770
H448        H  0.21445772  0.35831154  0.86905571     0.31230
H449        H  0.12712358  0.27608416  0.85767596     0.30100
H450        H  0.13236659  0.22057071  0.90208087     0.31780
H451        H  0.21697550  0.13828131  0.05925548     0.30750
H452        H  0.31823373  0.32407364  0.87028293     0.34750
H453        H  0.33966046  0.28317107  0.84911463     0.27480
H454        H  0.12854515  0.24661717  0.13312379     0.31720
H455        H  0.20112172  0.14341106  0.13623420     0.34570
H456        H  0.13453208  0.29735641  0.87778999     0.27180
H457        H  0.37577503  0.28211731  0.88528557     0.40050
H458        H  0.33003805  0.29737139  0.07506912     0.30100
H459        H  0.29379054  0.33544261  0.99689510     0.37720
H460        H  0.20848383  0.16156910  0.00481943     0.29570
H461        H  0.32397510  0.20092019  0.15787878     0.29630
H462        H  0.15168339  0.21767839  0.14888531     0.29900
Zr463      Zr  0.68822137  0.25736618  0.05355792     2.17510
O464        O  0.63443700  0.23555082  0.11947392    -0.52460
O465        O  0.66467582  0.30460014  0.03267386    -0.75660
O466        O  0.71148679  0.25535145  0.13101224    -0.82440
O467        O  0.61283608  0.24912449  0.96272571    -0.84190
O468        O  0.78506064  0.25190102  0.13527858    -0.79810
O469        O  0.61346236  0.25234419  0.03359730    -0.91450
O470        O  0.70480401  0.33607207  0.96798617    -0.77410
O471        O  0.75359181  0.28411148  0.03193847    -0.86900
O472        O  0.68869213  0.28388030  0.96562496    -0.86590
O473        O  0.74556291  0.22310439  0.08633531    -0.73350
O474        O  0.68561254  0.22343461  0.02450217    -0.85480
Zr475      Zr  0.81073830  0.24348868  0.94508603     2.26420
Zr476      Zr  0.81114496  0.25034899  0.06234232     2.06270
Zr477      Zr  0.68751994  0.25031579  0.93634481     2.10050
Zr478      Zr  0.75442234  0.31005688  0.94408224     1.78760
O479        O  0.64973431  0.21259080  0.93042752    -0.94290
O480        O  0.80064780  0.34111846  0.96055043    -0.42100
O481        O  0.75305856  0.27732663  0.91264845    -0.78730
O482        O  0.81354611  0.27744742  0.97407664    -0.97420
O483        O  0.80994072  0.21690228  0.03287649    -0.90720
O484        O  0.74524066  0.21688684  0.96670902    -0.93560
C485        C  0.67487556  0.32981432  0.00057503     1.00190
C486        C  0.59367416  0.24992305  0.99909328     1.13120
C487        C  0.74791217  0.25333757  0.15291804     1.03900
O488        O  0.85195346  0.28774580  0.06615272    -0.95720
O489        O  0.88598679  0.24815573  0.03935968    -0.91460
O490        O  0.88569597  0.24314438  0.97020857    -0.84610
C491        C  0.90534396  0.24550452  0.00484626     1.10540
O492        O  0.69489371  0.16322213  0.12259762    -0.97690
Zr493      Zr  0.74448211  0.19054674  0.05443572     1.88940
O494        O  0.83491373  0.19663989  0.96468943    -0.74340
O495        O  0.84754317  0.21295773  0.13380202    -0.53600
O496        O  0.78600397  0.16133823  0.12905361    -0.98280
O497        O  0.69903893  0.15846236  0.03957640    -0.55500
O498        O  0.79542982  0.16512982  0.03012259    -0.74860
C499        C  0.82516744  0.17142300  0.99720196     0.97490
O500        O  0.85904845  0.27062266  0.87513919    -0.63680
O501        O  0.65048064  0.28732787  0.86486030    -0.58480
O502        O  0.78800920  0.24404412  0.86888344    -0.95160
O503        O  0.71481587  0.25045490  0.86242761    -0.93590
O504        O  0.71437036  0.33993731  0.86872605    -0.93940
O505        O  0.80256139  0.33847665  0.87526488    -0.92730
C506        C  0.75173934  0.24758456  0.84589789     1.16330
H507        H  0.66369428  0.29609335  0.95343224     0.32270
H508        H  0.84039946  0.28792343  0.96376953     0.43130
H509        H  0.74421704  0.20470916  0.95192695     0.36650
H510        H  0.74342527  0.21251607  0.12193998     0.33130
H511        H  0.78865834  0.36015801  0.93954335     0.24920
H512        H  0.86252373  0.22261912  0.14987183     0.30860
H513        H  0.78818987  0.14283557  0.13014456     0.36770
H514        H  0.71483467  0.35879872  0.86635770     0.31230
H515        H  0.62846488  0.27736712  0.85557891     0.30100
H516        H  0.63224718  0.22218360  0.89978195     0.31780
H517        H  0.71504981  0.14041771  0.05480788     0.30750
H518        H  0.81764519  0.32475609  0.86796575     0.34750
H519        H  0.83992289  0.28382441  0.84811751     0.27480
H520        H  0.62835650  0.24950621  0.13076469     0.31720
H521        H  0.70408760  0.14339632  0.13613998     0.34570
H522        H  0.63332703  0.29774121  0.87799041     0.27180
H523        H  0.87580612  0.28300288  0.88436385     0.40050
H524        H  0.82989205  0.29886552  0.07265358     0.30100
H525        H  0.79327773  0.33686870  0.99472917     0.37720
H526        H  0.70081337  0.16509216  0.00358521     0.29570
H527        H  0.82386184  0.20219876  0.15693517     0.29630
H528        H  0.64973370  0.21994649  0.14742719     0.29900
C529        C  0.47650115  0.24480994  0.96555951    -0.14470
C530        C  0.45359656  0.24498691  0.00494227     0.07680
C531        C  0.47726913  0.24634032  0.04280795    -0.14470
C532        C  0.52264837  0.24778637  0.04105974    -0.14470
C533        C  0.54552343  0.24792238  0.00139273     0.07680
C534        C  0.52186508  0.24626995  0.96379761    -0.14470
H535        H  0.45939224  0.24385680  0.93567210     0.11660
H536        H  0.46075708  0.24648425  0.07374182     0.11660
H537        H  0.53975637  0.24893984  0.07076095     0.11660
H538        H  0.53834273  0.24630603  0.93269116     0.11660
C539        C  0.02241186  0.25012441  0.03909219    -0.14470
C540        C  0.04545969  0.24824671  0.00134101     0.07680
C541        C  0.02199409  0.24484493  0.96538165    -0.14470
C542        C  0.97662811  0.24359191  0.96689147    -0.14470
C543        C  0.95355871  0.24573411  0.00437451     0.07680
C544        C  0.97703971  0.24888749  0.04058521    -0.14470
H545        H  0.03937601  0.25271968  0.06744710     0.11660
H546        H  0.03863112  0.24325451  0.93583057     0.11660
H547        H  0.95965963  0.24116356  0.93836542     0.11660
H548        H  0.96039031  0.25063100  0.06997901     0.11660
C549        C  0.40575742  0.13029283  0.96360614    -0.14470
C550        C  0.40100685  0.10270652  0.00259644     0.07680
C551        C  0.37158084  0.09771959  0.04086224    -0.14470
C552        C  0.34732531  0.11974305  0.03998966    -0.14470
C553        C  0.35187354  0.14730042  0.00081326     0.07680
C554        C  0.38149955  0.15230193  0.96272050    -0.14470
H555        H  0.42797670  0.13491594  0.93337940     0.11660
H556        H  0.36715725  0.07676750  0.07151618     0.11660
H557        H  0.32502084  0.11512456  0.07014265     0.11660
H558        H  0.38587528  0.17323253  0.93199024     0.11660
C559        C  0.64003996  0.40337942  0.97070334    -0.14470
C560        C  0.60109026  0.39817828  0.99756379     0.07680
C561        C  0.58686191  0.37026028  0.02580156    -0.14470
C562        C  0.61099975  0.34807615  0.02718336    -0.14470
C563        C  0.64995048  0.35326548  0.00034343     0.07680
C564        C  0.66418619  0.38118696  0.97208396    -0.14470
H565        H  0.65214327  0.42459786  0.94893476     0.11660
H566        H  0.55692191  0.36550309  0.04679648     0.11660
H567        H  0.59887162  0.32686375  0.04894242     0.11660
H568        H  0.69411215  0.38593492  0.95106493     0.11660
C569        C  0.77264556  0.00044951  0.95976184    -0.14470
C570        C  0.79647019  0.99806188  0.00055664     0.07680
C571        C  0.77381018  0.49415410  0.04306069    -0.14470
C572        C  0.72842532  0.49293937  0.04455169    -0.14470
C573        C  0.70459384  0.49559204  0.00358573     0.07680
C574        C  0.72727077  0.99922211  0.96126321    -0.14470
H575        H  0.78901074  0.00358627  0.92635596     0.11660
H576        H  0.79111748  0.49204897  0.07527953     0.11660
H577        H  0.71202239  0.48998825  0.07782274     0.11660
H578        H  0.70995878  0.00151993  0.92891482     0.11660
C579        C  0.22779893  0.00386614  0.03644941    -0.14470
C580        C  0.20454735  0.49605914  0.00561663     0.07680
C581        C  0.22784992  0.48936122  0.97336647    -0.14470
C582        C  0.27322577  0.49071416  0.97162584    -0.14470
C583        C  0.29645376  0.99876583  0.00213218     0.07680
C584        C  0.27318651  0.00519431  0.03473942    -0.14470
H585        H  0.21093474  0.00930943  0.06155361     0.11660
H586        H  0.21104304  0.48314716  0.94924672     0.11660
H587        H  0.29008956  0.48542175  0.94632668     0.11660
H588        H  0.29000065  0.01155129  0.05866217     0.11660
C589        C  0.91226816  0.13126863  0.96948340    -0.14470
C590        C  0.89926781  0.10321849  0.99936328     0.07680
C591        C  0.86139717  0.09785549  0.02809211    -0.14470
C592        C  0.83719768  0.11996072  0.02704289    -0.14470
C593        C  0.85024163  0.14800729  0.99724830     0.07680
C594        C  0.88806904  0.15337783  0.96844008    -0.14470
H595        H  0.94130075  0.13619363  0.94694855     0.11660
H596        H  0.85020385  0.07654428  0.05122390     0.11660
H597        H  0.80817433  0.11502921  0.04959318     0.11660
H598        H  0.89927463  0.17468944  0.94533549     0.11660
C599        C  0.08719906  0.36926143  0.02897404    -0.14470
C600        C  0.10172299  0.39714540  0.00108564     0.07680
C601        C  0.14091891  0.40221964  0.97467905    -0.14470
C602        C  0.16487507  0.37998405  0.97590941    -0.14470
C603        C  0.15022890  0.35211213  0.00355285     0.07680
C604        C  0.11114948  0.34702152  0.03018799    -0.14470
H605        H  0.05709135  0.36459279  0.04965630     0.11660
H606        H  0.15330447  0.42339263  0.95325715     0.11660
H607        H  0.19493771  0.38466930  0.95514570     0.11660
H608        H  0.09872574  0.32585455  0.05155050     0.11660
C609        C  0.71292619  0.25254624  0.72519475    -0.14470
C610        C  0.75212649  0.25171855  0.70248694     0.07680
C611        C  0.79145248  0.24943831  0.72745122    -0.14470
C612        C  0.79147575  0.24787945  0.77416031    -0.14470
C613        C  0.75218253  0.24870403  0.79680636     0.07680
C614        C  0.71295476  0.25110736  0.77163787    -0.14470
H615        H  0.68202309  0.25435636  0.70706205     0.11660
H616        H  0.82222782  0.24861898  0.71111436     0.11660
H617        H  0.82229297  0.24612122  0.79241079     0.11660
H618        H  0.68204680  0.25186190  0.78779752     0.11660
C619        C  0.70807958  0.24743999  0.27456438    -0.14470
C620        C  0.74742165  0.24767778  0.29767755     0.07680
C621        C  0.78661947  0.25015116  0.27239354    -0.14470
C622        C  0.78658167  0.25224915  0.22542899    -0.14470
C623        C  0.74734511  0.25198957  0.20224756     0.07680
C624        C  0.70804002  0.24960721  0.22735532    -0.14470
H625        H  0.67726774  0.24566757  0.29284361     0.11660
H626        H  0.81756835  0.25053082  0.28881135     0.11660
H627        H  0.81749868  0.25406197  0.20731264     0.11660
H628        H  0.67722239  0.24920137  0.21072502     0.11660
C629        C  0.21310142  0.24795652  0.72883729    -0.14470
C630        C  0.25222739  0.25096478  0.70311832     0.07680
C631        C  0.29149169  0.25216432  0.72547320    -0.14470
C632        C  0.29152770  0.25041932  0.77236287    -0.14470
C633        C  0.25228715  0.24758984  0.79782187     0.07680
C634        C  0.21312879  0.24634835  0.77543740    -0.14470
H635        H  0.18221421  0.24687058  0.71297526     0.11660
H636        H  0.32224271  0.25438596  0.70683116     0.11660
H637        H  0.32226672  0.25157248  0.78842580     0.11660
H638        H  0.18229252  0.24408404  0.79395686     0.11660
C639        C  0.20805108  0.25170795  0.27138984    -0.14470
C640        C  0.24698947  0.24723876  0.29808723     0.07680
C641        C  0.28591251  0.24443240  0.27696961    -0.14470
C642        C  0.28603188  0.24619877  0.23027834    -0.14470
C643        C  0.24723442  0.25088780  0.20329118     0.07680
C644        C  0.20817768  0.25355260  0.22445941    -0.14470
H645        H  0.17752666  0.25412069  0.28647151     0.11660
H646        H  0.31648302  0.24086170  0.29652157     0.11660
H647        H  0.31670318  0.24382363  0.21541610     0.11660
H648        H  0.17768553  0.25710698  0.20477938     0.11660
C649        C  0.52250936  0.25126100  0.45928538    -0.14470
C650        C  0.54542060  0.25181596  0.49833298     0.07680
C651        C  0.52178440  0.25411021  0.53533190    -0.14470
C652        C  0.47641572  0.25552901  0.53360019    -0.14470
C653        C  0.45347330  0.25467025  0.49484273     0.07680
C654        C  0.47712304  0.25266881  0.45756474    -0.14470
H655        H  0.53959351  0.24958064  0.43006739     0.11660
H656        H  0.53828528  0.25463110  0.56593927     0.11660
H657        H  0.45933562  0.25701468  0.56300963     0.11660
H658        H  0.46058867  0.25196639  0.42713871     0.11660
C659        C  0.02241130  0.25067165  0.46000682    -0.14470
C660        C  0.04533903  0.25120505  0.49905470     0.07680
C661        C  0.02176481  0.25326688  0.53630754    -0.14470
C662        C  0.97640529  0.25453908  0.53476041    -0.14470
C663        C  0.95345994  0.25375449  0.49594630     0.07680
C664        C  0.97704555  0.25192446  0.45847914    -0.14470
H665        H  0.03946740  0.24916687  0.43060246     0.11660
H666        H  0.03830712  0.25375072  0.56692609     0.11660
H667        H  0.95934085  0.25586559  0.56433061     0.11660
H668        H  0.96048355  0.25128691  0.42800887     0.11660
C669        C  0.46311195  0.49663238  0.73026585    -0.14470
C670        C  0.50209160  0.00023271  0.70401665     0.07680
C671        C  0.54129622  0.00232194  0.72555918    -0.14470
C672        C  0.54142945  0.00089946  0.77215948    -0.14470
C673        C  0.50234442  0.49750753  0.79813470     0.07680
C674        C  0.46323205  0.49534762  0.77661562    -0.14470
H675        H  0.43229612  0.49484293  0.71501062     0.11660
H676        H  0.57193603  0.00504402  0.70646715     0.11660
H677        H  0.57211032  0.00277296  0.78756870     0.11660
H678        H  0.43253726  0.49260720  0.79562841     0.11660
C679        C  0.45956144  0.50078210  0.22661460    -0.14470
C680        C  0.49897672  0.00229814  0.20226229     0.07680
C681        C  0.53820519  0.00198173  0.22592758    -0.14470
C682        C  0.53810431  0.00017741  0.27266774    -0.14470
C683        C  0.49877232  0.49857192  0.29717072     0.07680
C684        C  0.45946151  0.49889847  0.27357031    -0.14470
H685        H  0.42873735  0.50085783  0.20957803     0.11660
H686        H  0.56919485  0.00309772  0.20838802     0.11660
H687        H  0.56903181  0.00005048  0.28956249     0.11660
H688        H  0.42856237  0.49780130  0.29125884     0.11660
C689        C  0.36640536  0.40253776  0.46330239    -0.14470
C690        C  0.40084309  0.39712826  0.49667927     0.07680
C691        C  0.41051879  0.36906786  0.53099469    -0.14470
C692        C  0.38616896  0.34700472  0.53218837    -0.14470
C693        C  0.35152534  0.35241640  0.49906926     0.07680
C694        C  0.34206329  0.38046495  0.46447687    -0.14470
H695        H  0.35795011  0.42386366  0.43644379     0.11660
H696        H  0.43681451  0.36407546  0.55726853     0.11660
H697        H  0.39457819  0.32568607  0.55912292     0.11660
H698        H  0.31569048  0.38544699  0.43829706     0.11660
C699        C  0.63859538  0.09625331  0.53102171    -0.14470
C700        C  0.60009163  0.10152340  0.50339793     0.07680
C701        C  0.58641554  0.12949932  0.47433238    -0.14470
C702        C  0.61067668  0.15166509  0.47284822    -0.14470
C703        C  0.64919765  0.14640443  0.50042263     0.07680
C704        C  0.66285553  0.11842650  0.52955045    -0.14470
H705        H  0.65027511  0.07499050  0.55347044     0.11660
H706        H  0.55684304  0.13432575  0.45270655     0.11660
H707        H  0.59899215  0.17292571  0.45039058     0.11660
H708        H  0.69242761  0.11361429  0.55117554     0.11660
C709        C  0.04302589  0.00173654  0.72596207    -0.14470
C710        C  0.00361320  0.00105981  0.70333923     0.07680
C711        C  0.96453292  0.49844441  0.72887862    -0.14470
C712        C  0.96473527  0.49670011  0.77556492    -0.14470
C713        C  0.00402714  0.49742690  0.79823726     0.07680
C714        C  0.04323528  0.99986816  0.77295636    -0.14470
H715        H  0.07375391  0.00362288  0.70746329     0.11660
H716        H  0.93354088  0.49777214  0.71280823     0.11660
H717        H  0.93389576  0.49476771  0.79389686     0.11660
H718        H  0.07407172  0.00061990  0.78923485     0.11660
C719        C  0.03632954  0.00225201  0.27105591    -0.14470
C720        C  0.99730660  0.49834671  0.29736975     0.07680
C721        C  0.95811556  0.49683805  0.27519624    -0.14470
C722        C  0.95808468  0.49905674  0.22795055    -0.14470
C723        C  0.99724946  0.00277089  0.20190566     0.07680
C724        C  0.03630119  0.00440950  0.22406946    -0.14470
H725        H  0.06713915  0.00370832  0.28668023     0.11660
H726        H  0.92744293  0.49392985  0.29431114     0.11660
H727        H  0.92743282  0.49755683  0.21209004     0.11660
H728        H  0.06708417  0.00732821  0.20514572     0.11660
C729        C  0.77302534  0.00175688  0.45991250    -0.14470
C730        C  0.79592528  0.50136136  0.49976200     0.07680
C731        C  0.77230269  0.50267224  0.53770933    -0.14470
C732        C  0.72693266  0.50407964  0.53607357    -0.14470
C733        C  0.70401458  0.00420194  0.49645739     0.07680
C734        C  0.72765821  0.00316276  0.45827899    -0.14470
H735        H  0.79010891  0.00088324  0.42993332     0.11660
H736        H  0.78881424  0.50241163  0.56897891     0.11660
H737        H  0.70983329  0.50477753  0.56620468     0.11660
H738        H  0.71113471  0.00325156  0.42716031     0.11660
C739        C  0.22755682  0.00159179  0.45822280    -0.14470
C740        C  0.20397704  0.00374917  0.49538943     0.07680
C741        C  0.22696136  0.50474041  0.53399649    -0.14470
C742        C  0.27231280  0.50331959  0.53568096    -0.14470
C743        C  0.29589108  0.50090752  0.49876785     0.07680
C744        C  0.27294169  0.00019926  0.45987962    -0.14470
H745        H  0.21097164  0.00078789  0.42791506     0.11660
H746        H  0.20992864  0.50634265  0.56332021     0.11660
H747        H  0.28884779  0.50397387  0.56615175     0.11660
H748        H  0.28999477  0.99842634  0.43073452     0.11660
C749        C  0.87307865  0.40078690  0.46047345    -0.14470
C750        C  0.89955374  0.39622460  0.50085343     0.07680
C751        C  0.90146988  0.36906000  0.54169100    -0.14470
C752        C  0.87748473  0.34703115  0.54214997    -0.14470
C753        C  0.85096906  0.35160600  0.50178325     0.07680
C754        C  0.84910192  0.37876280  0.46092973    -0.14470
H755        H  0.87094445  0.42139317  0.42833408     0.11660
H756        H  0.92127740  0.36481147  0.57359102     0.11660
H757        H  0.87960004  0.32642700  0.57429661     0.11660
H758        H  0.82928188  0.38302362  0.42903322     0.11660
C759        C  0.08752185  0.13042459  0.47013510    -0.14470
C760        C  0.10119600  0.10245265  0.49932180     0.07680
C761        C  0.13967474  0.09726379  0.52697492    -0.14470
C762        C  0.16373787  0.11946545  0.52570879    -0.14470
C763        C  0.14992532  0.14742765  0.49678502     0.07680
C764        C  0.11157952  0.15263303  0.46888768    -0.14470
H765        H  0.05800418  0.13519968  0.44842677     0.11660
H766        H  0.15140814  0.07601851  0.54946121     0.11660
H767        H  0.19320762  0.11467271  0.54749792     0.11660
H768        H  0.09980923  0.17387520  0.44646471     0.11660
Zr769      Zr  0.93843519  0.99213277  0.44683470     2.17510
O770        O  0.88418258  0.51368088  0.38141609    -0.52460
O771        O  0.91582552  0.94481739  0.46705291    -0.75660
O772        O  0.96149371  0.99433964  0.36913883    -0.82440
O773        O  0.86333407  0.50068004  0.53777593    -0.84190
O774        O  0.03502982  0.99806470  0.36458024    -0.79810
O775        O  0.86375436  0.99687535  0.46744522    -0.91450
O776        O  0.95289276  0.91358763  0.53491488    -0.77410
O777        O  0.00376309  0.96538287  0.46868327    -0.86900
O778        O  0.93887992  0.96606119  0.53485261    -0.86590
O779        O  0.99577344  0.52637663  0.41355304    -0.73350
O780        O  0.93589126  0.52632469  0.47534457    -0.85480
Zr781      Zr  0.06121864  0.50668409  0.55428691     2.26420
Zr782      Zr  0.06135503  0.99912947  0.43780088     2.06270
Zr783      Zr  0.93808052  0.49992424  0.56356212     2.10050
Zr784      Zr  0.00444725  0.93976349  0.55656165     1.78760
O785        O  0.90145397  0.53857311  0.56759775    -0.94290
O786        O  0.04853135  0.90823962  0.53903783    -0.42100
O787        O  0.00352076  0.97285313  0.58725552    -0.78730
O788        O  0.06369200  0.97235352  0.52609729    -0.97420
O789        O  0.06017646  0.53291932  0.46646793    -0.90720
O790        O  0.99576390  0.53333619  0.53253321    -0.93560
C791        C  0.92444924  0.91969304  0.50080330     1.00190
C792        C  0.84407474  0.99951408  0.50180104     1.13120
C793        C  0.99787934  0.99662000  0.34698254     1.03900
O794        O  0.10117186  0.96121128  0.43463249    -0.95720
O795        O  0.13633796  0.00132025  0.46044638    -0.91460
O796        O  0.13612210  0.50670495  0.52920771    -0.84610
C797        C  0.15574510  0.50411193  0.49478584     1.10540
O798        O  0.94379129  0.58583275  0.37754380    -0.97690
Zr799      Zr  0.99465118  0.55924113  0.44471066     1.88940
O800        O  0.08553124  0.55377441  0.53318989    -0.74340
O801        O  0.09859125  0.53603746  0.36641382    -0.53600
O802        O  0.03518382  0.58813101  0.36910073    -0.98280
O803        O  0.95022394  0.59187661  0.45918882    -0.55500
O804        O  0.04613244  0.58503390  0.46739701    -0.74860
C805        C  0.07593900  0.57891168  0.50015000     0.97490
O806        O  0.10973899  0.97992905  0.62422878    -0.63680
O807        O  0.90020888  0.96392712  0.63559539    -0.58480
O808        O  0.03897424  0.50628805  0.63055149    -0.95160
O809        O  0.96588002  0.49946076  0.63767834    -0.93590
O810        O  0.96639925  0.91043881  0.63375020    -0.93940
O811        O  0.05439716  0.91154364  0.62347897    -0.92730
C812        C  0.00286866  0.50245576  0.65396898     1.16330
H813        H  0.91381954  0.95391500  0.54723033     0.32270
H814        H  0.09052078  0.96185854  0.53649090     0.43130
H815        H  0.99486973  0.54564669  0.54705248     0.36650
H816        H  0.99359911  0.53688726  0.37794755     0.33130
H817        H  0.03659991  0.88927992  0.56079699     0.24920
H818        H  0.11302778  0.52619996  0.35032834     0.30860
H819        H  0.03731431  0.60679339  0.36738592     0.36770
H820        H  0.96582430  0.89151861  0.63637144     0.31230
H821        H  0.87699070  0.97418174  0.64258320     0.30100
H822        H  0.88498493  0.52956984  0.59905983     0.31780
H823        H  0.96544805  0.61014805  0.44152017     0.30750
H824        H  0.06738158  0.92498688  0.63294832     0.34750
H825        H  0.09074225  0.96668544  0.65136749     0.27480
H826        H  0.87826260  0.49972596  0.37008380     0.31720
H827        H  0.95324838  0.60567691  0.36266524     0.34570
H828        H  0.88457184  0.95245301  0.62349821     0.27180
H829        H  0.12667901  0.96753947  0.61517973     0.40050
H830        H  0.07881745  0.95032270  0.42796691     0.30100
H831        H  0.03993259  0.91230559  0.50527654     0.37720
H832        H  0.95397633  0.58626924  0.49462702     0.29570
H833        H  0.07513536  0.54713271  0.34325746     0.29630
H834        H  0.89921224  0.52940388  0.35338161     0.29900
Zr835      Zr  0.43887864  0.99280076  0.44572526     2.17510
O836        O  0.38606091  0.51598180  0.37916922    -0.52460
O837        O  0.41573166  0.94579866  0.46474988    -0.75660
O838        O  0.46260763  0.99489219  0.36841906    -0.82440
O839        O  0.36313245  0.49993459  0.53729060    -0.84190
O840        O  0.53612130  0.99900024  0.36398788    -0.79810
O841        O  0.36390861  0.99684455  0.46627588    -0.91450
O842        O  0.45509977  0.91420705  0.53003194    -0.77410
O843        O  0.50452229  0.96636812  0.46681968    -0.86900
O844        O  0.43924349  0.96578194  0.53360209    -0.86590
O845        O  0.49596149  0.52724947  0.41357682    -0.73350
O846        O  0.43564084  0.52616508  0.47598596    -0.85480
Zr847      Zr  0.56078864  0.50607304  0.55534627     2.26420
Zr848      Zr  0.56183933  0.00032028  0.43717782     2.06270
Zr849      Zr  0.43765502  0.49881860  0.56406318     2.10050
Zr850      Zr  0.50510234  0.93979613  0.55455581     1.78760
O851        O  0.39964878  0.53633082  0.57045462    -0.94290
O852        O  0.55103284  0.90927691  0.53638355    -0.42100
O853        O  0.50337204  0.97199226  0.58716045    -0.78730
O854        O  0.56404471  0.97259248  0.52533157    -0.97420
O855        O  0.55996088  0.53327107  0.46764919    -0.90720
O856        O  0.49507630  0.53245364  0.53419332    -0.93560
C857        C  0.42562408  0.92054272  0.49691928     1.00190
C858        C  0.34404661  0.99909976  0.50091632     1.13120
C859        C  0.49910956  0.99725508  0.34643636     1.03900
O860        O  0.60360369  0.96376279  0.43169494    -0.95720
O861        O  0.63657642  0.00241917  0.46061346    -0.91460
O862        O  0.63596476  0.50641161  0.53076543    -0.84610
C863        C  0.65578508  0.50453460  0.49573517     1.10540
O864        O  0.44375904  0.58656210  0.37922606    -0.97690
Zr865      Zr  0.49413946  0.55928114  0.44651081     1.88940
O866        O  0.58494296  0.55288951  0.53593409    -0.74340
O867        O  0.59757122  0.53853182  0.36628125    -0.53600
O868        O  0.53494045  0.58913145  0.37164376    -0.98280
O869        O  0.44896461  0.59104393  0.46253492    -0.55500
O870        O  0.54508882  0.58447327  0.47096796    -0.74860
C871        C  0.57500782  0.57811740  0.50364698     0.97490
O872        O  0.60864863  0.97869261  0.62559635    -0.63680
O873        O  0.40048889  0.96158444  0.63513102    -0.58480
O874        O  0.53779506  0.50535117  0.63158837    -0.95160
O875        O  0.46474210  0.49828211  0.63847000    -0.93590
O876        O  0.46565695  0.90926836  0.63001867    -0.93940
O877        O  0.55373388  0.91104292  0.62257125    -0.92730
C878        C  0.50158485  0.50142426  0.65484467     1.16330
H879        H  0.41431900  0.95348422  0.54552924     0.32270
H880        H  0.59094713  0.96216666  0.53548891     0.43130
H881        H  0.49391478  0.54445007  0.54932916     0.36650
H882        H  0.49383308  0.53801186  0.37799121     0.33130
H883        H  0.53921768  0.89016005  0.55716361     0.24920
H884        H  0.61327880  0.52926146  0.34997231     0.30860
H885        H  0.53690990  0.60754018  0.37094559     0.36770
H886        H  0.46585620  0.89060305  0.63158053     0.31230
H887        H  0.37782791  0.97138955  0.64393455     0.30100
H888        H  0.38213893  0.52661718  0.60106787     0.31780
H889        H  0.46450934  0.60925608  0.44658022     0.30750
H890        H  0.56806105  0.92451952  0.63105669     0.34750
H891        H  0.58936455  0.96539510  0.65232428     0.27480
H892        H  0.37952166  0.50236725  0.36723552     0.31720
H893        H  0.45283140  0.60641159  0.36566498     0.34570
H894        H  0.38411238  0.95095082  0.62185333     0.27180
H895        H  0.62561030  0.96642515  0.61627822     0.40050
H896        H  0.58170761  0.95213963  0.42627177     0.30100
H897        H  0.54329465  0.91379190  0.50216513     0.37720
H898        H  0.45167930  0.58457163  0.49840379     0.29570
H899        H  0.57375627  0.54903711  0.34314444     0.29630
H900        H  0.40205808  0.53145699  0.35173595     0.29900
Zr901      Zr  0.18796623  0.74314004  0.44551128     2.17510
O902        O  0.13512842  0.76646124  0.37902186    -0.52460
O903        O  0.16427877  0.69612481  0.46521718    -0.75660
O904        O  0.21111264  0.74471404  0.36851997    -0.82440
O905        O  0.11269403  0.75061347  0.53706787    -0.84190
O906        O  0.28475410  0.74790760  0.36440797    -0.79810
O907        O  0.11318936  0.74721503  0.46634944    -0.91450
O908        O  0.20456629  0.66458950  0.52963727    -0.77410
O909        O  0.25345519  0.71654521  0.46666833    -0.86900
O910        O  0.18853535  0.71648255  0.53341553    -0.86590
O911        O  0.24527639  0.77739636  0.41261243    -0.73350
O912        O  0.18517073  0.77686312  0.47497756    -0.85480
Zr913      Zr  0.31044306  0.75687449  0.55396642     2.26420
Zr914      Zr  0.31100624  0.75031994  0.43646755     2.06270
Zr915      Zr  0.18737143  0.74989943  0.56307021     2.10050
Zr916      Zr  0.25421787  0.69032338  0.55440105     1.78760
O917        O  0.15037084  0.78821733  0.56783960    -0.94290
O918        O  0.30065601  0.65972963  0.53695711    -0.42100
O919        O  0.25290604  0.72289614  0.58625815    -0.78730
O920        O  0.31331019  0.72301883  0.52470483    -0.97420
O921        O  0.30950601  0.78362331  0.46618173    -0.90720
O922        O  0.24490987  0.78343027  0.53251249    -0.93560
C923        C  0.17463520  0.67088073  0.49700152     1.00190
C924        C  0.09347632  0.74956385  0.50096081     1.13120
C925        C  0.24757530  0.74640515  0.34690692     1.03900
O926        O  0.35317310  0.71376067  0.43145350    -0.95720
O927        O  0.38590551  0.75255842  0.45941416    -0.91460
O928        O  0.38548142  0.75712956  0.52899944    -0.84610
C929        C  0.40521692  0.75497439  0.49419293     1.10540
O930        O  0.19128583  0.83630698  0.37949218    -0.97690
Zr931      Zr  0.24386090  0.80982276  0.44470710     1.88940
O932        O  0.33468141  0.80385027  0.53358299    -0.74340
O933        O  0.34593958  0.78841257  0.36467511    -0.53600
O934        O  0.28276897  0.83909397  0.36804242    -0.98280
O935        O  0.20120657  0.84264187  0.46052552    -0.55500
O936        O  0.29656326  0.83521673  0.46669499    -0.74860
C937        C  0.32588880  0.82899264  0.49997136     0.97490
O938        O  0.35869549  0.72983758  0.62401674    -0.63680
O939        O  0.14973511  0.71347125  0.63477472    -0.58480
O940        O  0.28786248  0.75621557  0.63041096    -0.95160
O941        O  0.21478685  0.74929697  0.63738617    -0.93590
O942        O  0.21423048  0.65989992  0.62949315    -0.93940
O943        O  0.30228042  0.66173484  0.62315331    -0.92730
C944        C  0.25169423  0.75232639  0.65376606     1.16330
H945        H  0.16357846  0.70422593  0.54557456     0.32270
H946        H  0.34018314  0.71256402  0.53494271     0.43130
H947        H  0.24395914  0.79556724  0.54737494     0.36650
H948        H  0.24306723  0.78795830  0.37701034     0.33130
H949        H  0.28896144  0.64060015  0.55792136     0.24920
H950        H  0.36206285  0.77898892  0.34891501     0.30860
H951        H  0.28525707  0.85766474  0.36663561     0.36770
H952        H  0.21474232  0.64117935  0.63128413     0.31230
H953        H  0.12638204  0.72352780  0.64203590     0.30100
H954        H  0.13293402  0.77894436  0.59857789     0.31780
H955        H  0.21597657  0.86098244  0.44148722     0.30750
H956        H  0.31800312  0.67543578  0.62997537     0.34750
H957        H  0.33959580  0.71648468  0.65090464     0.27480
H958        H  0.12818347  0.75278904  0.36733456     0.31720
H959        H  0.20096138  0.85613005  0.36389144     0.34570
H960        H  0.13425935  0.70209206  0.62236452     0.27180
H961        H  0.37577495  0.71759290  0.61474844     0.40050
H962        H  0.33138749  0.70183040  0.42670557     0.30100
H963        H  0.29305154  0.66405769  0.50279832     0.37720
H964        H  0.20667923  0.83744140  0.49553256     0.29570
H965        H  0.32194660  0.79843889  0.34142739     0.29630
H966        H  0.15124941  0.78176690  0.35143862     0.29900
Zr967      Zr  0.68820621  0.74227417  0.44640439     2.17510
O968        O  0.63471529  0.76429288  0.38024019    -0.52460
O969        O  0.66440822  0.69505289  0.46754164    -0.75660
O970        O  0.71153996  0.74396237  0.36920185    -0.82440
O971        O  0.61272196  0.75084627  0.53683351    -0.84190
O972        O  0.78507247  0.74775755  0.36469189    -0.79810
O973        O  0.61340206  0.74729523  0.46627324    -0.91450
O974        O  0.70403444  0.66361611  0.53276336    -0.77410
O975        O  0.75340802  0.71536050  0.46840605    -0.86900
O976        O  0.68843965  0.71600685  0.53437141    -0.86590
O977        O  0.74577636  0.77637248  0.41348540    -0.73350
O978        O  0.68578350  0.77640338  0.47503794    -0.85480
Zr979      Zr  0.81058663  0.75620835  0.55482685     2.26420
Zr980      Zr  0.81118404  0.74896857  0.43791320     2.06270
Zr981      Zr  0.68737636  0.74976416  0.56323697     2.10050
Zr982      Zr  0.75397958  0.68963791  0.55629010     1.78760
O983        O  0.64958264  0.78777981  0.56820450    -0.94290
O984        O  0.79985799  0.65834436  0.54003556    -0.42100
O985        O  0.75269841  0.72253859  0.58737410    -0.78730
O986        O  0.81330954  0.72208545  0.52621681    -0.97420
O987        O  0.81015149  0.78258663  0.46699488    -0.90720
O988        O  0.74531072  0.78301410  0.53268925    -0.93560
C989        C  0.67428629  0.66985415  0.49999531     1.00670
C990        C  0.59358393  0.74986484  0.50062116     1.13120
C991        C  0.74795873  0.74618796  0.34713333     1.03900
O992        O  0.85129683  0.71109591  0.43491708    -0.95720
O993        O  0.88597727  0.75120066  0.46097362    -0.91460
O994        O  0.88555213  0.75654486  0.52979005    -0.84610
C995        C  0.90525981  0.75400878  0.49535953     1.10540
O996        O  0.69383483  0.83625161  0.37830728    -0.97690
Zr997      Zr  0.74488677  0.80912429  0.44491510     1.88940
O998        O  0.83418115  0.80307070  0.53584211    -0.74340
O999        O  0.84847527  0.78586446  0.36656423    -0.53600
O1000       O  0.78511513  0.83777993  0.36895506    -0.98280
O1001       O  0.70148396  0.84204556  0.45970743    -0.55500
O1002       O  0.79741110  0.83440268  0.46768098    -0.74860
C1003       C  0.82586185  0.82819603  0.50187986     0.97490
O1004       O  0.85901762  0.72906700  0.62463556    -0.63680
O1005       O  0.65029910  0.71298280  0.63500696    -0.58480
O1006       O  0.78792862  0.75558741  0.63104058    -0.95160
O1007       O  0.71453713  0.75015865  0.63680547    -0.93590
O1008       O  0.71397856  0.65993831  0.63180813    -0.93940
O1009       O  0.80215289  0.66126544  0.62507901    -0.92730
C1010       C  0.75157687  0.75262614  0.65359418     1.16330
H1011       H  0.66336591  0.70386171  0.54658890     0.32270
H1012       H  0.84010647  0.71155865  0.53668253     0.43130
H1013       H  0.74438066  0.79526937  0.54731538     0.36650
H1014       H  0.74371171  0.78689124  0.37787007     0.33130
H1015       H  0.78776998  0.63934863  0.56117924     0.24920
H1016       H  0.86312378  0.77599644  0.35066058     0.30860
H1017       H  0.78829027  0.85629569  0.36762802     0.36770
H1018       H  0.71439115  0.64103411  0.63435374     0.31230
H1019       H  0.62813360  0.72303156  0.64391145     0.30100
H1020       H  0.63200091  0.77835400  0.59881223     0.31780
H1021       H  0.71762497  0.86002182  0.44316631     0.30750
H1022       H  0.81699075  0.67498242  0.63257691     0.34750
H1023       H  0.83992541  0.71594733  0.65179846     0.27480
H1024       H  0.62846304  0.75032795  0.36901866     0.31720
H1025       H  0.70377203  0.85600212  0.36341064     0.34570
H1026       H  0.63332450  0.70236947  0.62214040     0.27180
H1027       H  0.87558280  0.71659580  0.61545735     0.40050
H1028       H  0.82916215  0.70041437  0.42744546     0.30100
H1029       H  0.79240874  0.66252676  0.50591320     0.37720
H1030       H  0.70441673  0.83592496  0.49543154     0.29570
H1031       H  0.82505245  0.79687089  0.34325988     0.29630
H1032       H  0.65023093  0.77978195  0.35231357     0.29900
Zr1033     Zr  0.93870263  0.50733678  0.05366007     2.17510
O1034       O  0.88465469  0.98580032  0.11935021    -0.52460
O1035       O  0.91470969  0.55457015  0.03226011    -0.75660
O1036       O  0.96160865  0.50559831  0.13098767    -0.82440
O1037       O  0.86388788  0.99923693  0.96218963    -0.84190
O1038       O  0.03524168  0.50269030  0.13515142    -0.79810
O1039       O  0.86420085  0.50189509  0.03361012    -0.91450
O1040       O  0.95429605  0.58597579  0.96695969    -0.77410
O1041       O  0.00391346  0.53424544  0.03188749    -0.86900
O1042       O  0.93934445  0.53342571  0.96567089    -0.86590
O1043       O  0.99626424  0.97328312  0.08711145    -0.73350
O1044       O  0.93648123  0.97306952  0.02535049    -0.85480
Zr1045     Zr  0.06197982  0.99292459  0.94645225     2.26420
Zr1046     Zr  0.06172317  0.50066571  0.06281319     2.06270
Zr1047     Zr  0.93877223  0.99949842  0.93715048     2.10050
Zr1048     Zr  0.00482404  0.55982285  0.94403570     1.78760
O1049       O  0.90147514  0.96092302  0.93355547    -0.94290
O1050       O  0.05023749  0.59117560  0.96061906    -0.42100
O1051       O  0.00414541  0.52666614  0.91344221    -0.78730
O1052       O  0.06417276  0.52733927  0.97450305    -0.97420
O1053       O  0.06087624  0.96679715  0.03430123    -0.90720
O1054       O  0.99660137  0.96619146  0.96828607    -0.93560
C1055       C  0.92448542  0.57977009  0.99971459     1.00190
C1056       C  0.84458934  0.49983359  0.99866353     1.13120
C1057       C  0.99798207  0.50394707  0.15274852     1.03900
O1058       O  0.10233977  0.53807120  0.06681117    -0.95720
O1059       O  0.13678478  0.49893718  0.03986161    -0.91460
O1060       O  0.13683251  0.99264332  0.97202061    -0.84610
C1061       C  0.15631841  0.99570116  0.00604119     1.10540
O1062       O  0.94507241  0.91365575  0.12375527    -0.97690
Zr1063     Zr  0.99547128  0.94033539  0.05610029     1.88940
O1064       O  0.08630888  0.94584188  0.96745428    -0.74340
O1065       O  0.09786128  0.96330258  0.13454392    -0.53600
O1066       O  0.03640381  0.91145796  0.13137651    -0.98280
O1067       O  0.95084567  0.90770698  0.04182546    -0.55500
O1068       O  0.04673267  0.91456470  0.03308341    -0.74860
C1069       C  0.07658568  0.92069630  0.00036483     0.97490
O1070       O  0.11073081  0.51973139  0.87678005    -0.63680
O1071       O  0.90189306  0.53564071  0.86443716    -0.58480
O1072       O  0.03978324  0.99327624  0.87013048    -0.95160
O1073       O  0.96646403  0.99908388  0.86381543    -0.93590
O1074       O  0.96537565  0.58930086  0.86798920    -0.93940
O1075       O  0.05345319  0.58811830  0.87566438    -0.92730
C1076       C  0.00351883  0.99643122  0.84726930     1.16330
H1077       H  0.91427456  0.54555416  0.95321297     0.32270
H1078       H  0.09096335  0.53787870  0.96408524     0.43130
H1079       H  0.99577126  0.95384058  0.95384663     0.36650
H1080       H  0.99407426  0.96285563  0.12272623     0.33130
H1081       H  0.03832854  0.61017683  0.93912650     0.24920
H1082       H  0.11300821  0.97302133  0.15040608     0.30860
H1083       H  0.03840485  0.89278838  0.13310051     0.36770
H1084       H  0.96540988  0.60822266  0.86537457     0.31230
H1085       H  0.87860887  0.52550797  0.85726101     0.30100
H1086       H  0.88516443  0.96991572  0.90199114     0.31780
H1087       H  0.96622149  0.88947490  0.05913756     0.30750
H1088       H  0.06807644  0.57440358  0.86798875     0.34750
H1089       H  0.09178158  0.53290514  0.84951823     0.27480
H1090       H  0.87851769  0.99986333  0.13037868     0.31720
H1091       H  0.95439404  0.89380038  0.13829506     0.34570
H1092       H  0.88629950  0.54729724  0.87618298     0.27180
H1093       H  0.12742655  0.53217130  0.88591662     0.40050
H1094       H  0.08007395  0.54960172  0.07194710     0.30100
H1095       H  0.04231038  0.58712723  0.99455463     0.37720
H1096       H  0.95423534  0.91344081  0.00629215     0.29570
H1097       H  0.07411139  0.95272211  0.15773277     0.29630
H1098       H  0.89983038  0.97023685  0.14749432     0.29900
Zr1099     Zr  0.43953817  0.50705558  0.05449126     2.17510
O1100       O  0.38702332  0.98341697  0.12124100    -0.52460
O1101       O  0.41665871  0.55407987  0.03555548    -0.75660
O1102       O  0.46302885  0.50540356  0.13142009    -0.82440
O1103       O  0.36365569  0.99873255  0.96433288    -0.84190
O1104       O  0.53661418  0.50180737  0.13557197    -0.79810
O1105       O  0.36445790  0.50361328  0.03362166    -0.91450
O1106       O  0.45453023  0.58553331  0.96863129    -0.77410
O1107       O  0.50495317  0.53372423  0.03278305    -0.86900
O1108       O  0.43959546  0.53365896  0.96658718    -0.86590
O1109       O  0.49692673  0.97284282  0.08691499    -0.73350
O1110       O  0.43653182  0.97327141  0.02515882    -0.85480
Zr1111     Zr  0.56138982  0.99360510  0.94513165     2.26420
Zr1112     Zr  0.56256794  0.50000154  0.06278030     2.06270
Zr1113     Zr  0.43814347  0.00022422  0.93701420     2.10050
Zr1114     Zr  0.50523627  0.55990156  0.94499855     1.78760
O1115       O  0.39950745  0.96286134  0.93078220    -0.94290
O1116       O  0.55027466  0.59084671  0.96302090    -0.42100
O1117       O  0.50359069  0.52736584  0.91311015    -0.78730
O1118       O  0.56448658  0.52736273  0.97452523    -0.97420
O1119       O  0.56093512  0.96676941  0.03290382    -0.90720
O1120       O  0.49598039  0.96689875  0.96705295    -0.93560
C1121       C  0.42578190  0.57927610  0.00247674     1.00190
C1122       C  0.34459361  0.50049260  0.99987483     1.13120
C1123       C  0.49951667  0.50340285  0.15317143     1.03900
O1124       O  0.60420011  0.53705884  0.06676042    -0.95720
O1125       O  0.63729123  0.49738644  0.03967051    -0.91460
O1126       O  0.63654625  0.99366827  0.96922878    -0.84610
C1127       C  0.65640666  0.99537730  0.00437969     1.10540
O1128       O  0.44607337  0.91297082  0.12308882    -0.97690
Zr1129     Zr  0.49542313  0.94044627  0.05476174     1.88940
O1130       O  0.58591359  0.94680550  0.96492286    -0.74340
O1131       O  0.59848285  0.96232538  0.13428681    -0.53600
O1132       O  0.53714894  0.91110865  0.12914139    -0.98280
O1133       O  0.44994083  0.90840567  0.03982146    -0.55500
O1134       O  0.54619452  0.91524578  0.03008820    -0.74860
C1135       C  0.57604735  0.92158905  0.99732558     0.97490
O1136       O  0.60898620  0.52100006  0.87459201    -0.63680
O1137       O  0.40148306  0.53765040  0.86577025    -0.58480
O1138       O  0.53836672  0.99392675  0.86924526    -0.95160
O1139       O  0.46497750  0.99948977  0.86357681    -0.93590
O1140       O  0.46632838  0.59012487  0.86895522    -0.93940
O1141       O  0.55430709  0.58850962  0.87734173    -0.92730
C1142       C  0.50194738  0.99685814  0.84682138     1.16330
H1143       H  0.41456970  0.54586085  0.95461777     0.32270
H1144       H  0.59131537  0.53786247  0.96414924     0.43130
H1145       H  0.49491668  0.95472861  0.95225826     0.36650
H1146       H  0.49488287  0.96222866  0.12252541     0.33130
H1147       H  0.53838855  0.60989498  0.94184376     0.24920
H1148       H  0.61389628  0.97188465  0.15026738     0.30860
H1149       H  0.53931406  0.89264967  0.13005959     0.36770
H1150       H  0.46624850  0.60885189  0.86714733     0.31230
H1151       H  0.38010480  0.52783305  0.85542274     0.30100
H1152       H  0.38150023  0.97266117  0.90059175     0.31780
H1153       H  0.46611629  0.89042387  0.05462985     0.30750
H1154       H  0.56807541  0.57506695  0.86838133     0.34750
H1155       H  0.58956876  0.53411383  0.84782312     0.27480
H1156       H  0.38007705  0.99699370  0.13314361     0.31720
H1157       H  0.45522177  0.89315319  0.13637603     0.34570
H1158       H  0.38358458  0.54754341  0.87932195     0.27180
H1159       H  0.62576004  0.53345964  0.88361638     0.40050
H1160       H  0.58231758  0.54858497  0.07246481     0.30100
H1161       H  0.54213612  0.58649871  0.99705654     0.37720
H1162       H  0.45138420  0.91520725  0.00375829     0.29570
H1163       H  0.57469774  0.95180998  0.15747676     0.29630
H1164       H  0.40332465  0.96812234  0.14863319     0.29900
Zr1165     Zr  0.18815395  0.75638587  0.05472063     2.17510
O1166       O  0.13547802  0.73296832  0.12137840    -0.52460
O1167       O  0.16438235  0.80340455  0.03495250    -0.75660
O1168       O  0.21142216  0.75488069  0.13166809    -0.82440
O1169       O  0.11281425  0.74873874  0.96338594    -0.84190
O1170       O  0.28488003  0.75036512  0.13673151    -0.79810
O1171       O  0.11333333  0.75234839  0.03390832    -0.91450
O1172       O  0.20486224  0.83494278  0.97071241    -0.77410
O1173       O  0.25360853  0.78302141  0.03342829    -0.86900
O1174       O  0.18861380  0.78296378  0.96680360    -0.86590
O1175       O  0.24551077  0.72214739  0.08749968    -0.73350
O1176       O  0.18541959  0.72261084  0.02533081    -0.85480
Zr1177     Zr  0.31053787  0.74272686  0.94604500     2.26420
Zr1178     Zr  0.31120121  0.74926666  0.06353474     2.06270
Zr1179     Zr  0.18745780  0.74950139  0.93721803     2.10050
Zr1180     Zr  0.25422907  0.80919659  0.94566320     1.78760
O1181       O  0.14988923  0.71126774  0.93274249    -0.94290
O1182       O  0.30096615  0.83986392  0.96258332    -0.42100
O1183       O  0.25289891  0.77661752  0.91380039    -0.78730
O1184       O  0.31340404  0.77657197  0.97529485    -0.97420
O1185       O  0.30974870  0.71596699  0.03383035    -0.90720
O1186       O  0.24509953  0.71607221  0.96771609    -0.93560
C1187       C  0.17486135  0.82865053  0.00328141     1.00190
C1188       C  0.09360666  0.74989037  0.99941349     1.13120
C1189       C  0.24780133  0.75230329  0.15396724     1.03900
O1190       O  0.35206126  0.78641194  0.06811745    -0.95720
O1191       O  0.38607106  0.74711100  0.04042224    -0.91460
O1192       O  0.38559374  0.74244727  0.97092816    -0.84610
C1193       C  0.40535132  0.74465726  0.00566022     1.10540
O1194       O  0.19110424  0.66317251  0.12010517    -0.97690
Zr1195     Zr  0.24417782  0.68969555  0.05550599     1.88940
O1196       O  0.33449523  0.69578336  0.96598194    -0.74340
O1197       O  0.34762648  0.71166160  0.13467904    -0.53600
O1198       O  0.28263377  0.66062494  0.13258680    -0.98280
O1199       O  0.20234680  0.65661187  0.03959403    -0.55500
O1200       O  0.29746937  0.66444129  0.03392070    -0.74860
C1201       C  0.32625944  0.67067274  0.00008250     0.97490
O1202       O  0.35877892  0.76984839  0.87600555    -0.63680
O1203       O  0.15028090  0.78609031  0.86533452    -0.58480
O1204       O  0.28801200  0.74338470  0.86965198    -0.95160
O1205       O  0.21470078  0.74926089  0.86347639    -0.93590
O1206       O  0.21379664  0.83957379  0.87092266    -0.93940
O1207       O  0.30189282  0.83780601  0.87647716    -0.92730
C1208       C  0.25172173  0.74659954  0.84684125     1.16330
H1209       H  0.16363931  0.79520444  0.95468071     0.32270
H1210       H  0.34025542  0.78705075  0.96500195     0.43130
H1211       H  0.24417137  0.70391698  0.95289160     0.36650
H1212       H  0.24331597  0.71154255  0.12309772     0.33130
H1213       H  0.28905448  0.85896183  0.94189730     0.24920
H1214       H  0.36281422  0.72121637  0.15081063     0.30860
H1215       H  0.28561107  0.64207866  0.13399049     0.36770
H1216       H  0.21445772  0.85831155  0.86905572     0.31230
H1217       H  0.12712361  0.77608418  0.85767593     0.30100
H1218       H  0.13236660  0.72057073  0.90208084     0.31780
H1219       H  0.21697553  0.63828132  0.05925545     0.30750
H1220       H  0.31823373  0.82407366  0.87028294     0.34750
H1221       H  0.33966047  0.78317110  0.84911462     0.27480
H1222       H  0.12854515  0.74661717  0.13312378     0.31720
H1223       H  0.20112174  0.64341106  0.13623418     0.34570
H1224       H  0.13453210  0.79735642  0.87778998     0.27180
H1225       H  0.37577504  0.78211733  0.88528557     0.40050
H1226       H  0.33003804  0.79737139  0.07506914     0.30100
H1227       H  0.29379054  0.83544261  0.99689511     0.37720
H1228       H  0.20848386  0.66156911  0.00481940     0.29570
H1229       H  0.32397512  0.70092020  0.15787877     0.29630
H1230       H  0.15168339  0.71767839  0.14888530     0.29900
Zr1231     Zr  0.68822138  0.75736618  0.05355794     2.17510
O1232       O  0.63443703  0.73555080  0.11947395    -0.52460
O1233       O  0.66467581  0.80460013  0.03267387    -0.75660
O1234       O  0.71148680  0.75535146  0.13101224    -0.82440
O1235       O  0.61283609  0.74912448  0.96272573    -0.84190
O1236       O  0.78506065  0.75190103  0.13527857    -0.79810
O1237       O  0.61346236  0.75234419  0.03359732    -0.91450
O1238       O  0.70480398  0.83607207  0.96798618    -0.77410
O1239       O  0.75359181  0.78411149  0.03193848    -0.86900
O1240       O  0.68869213  0.78388029  0.96562497    -0.86590
O1241       O  0.74556293  0.72310439  0.08633532    -0.73350
O1242       O  0.68561256  0.72343461  0.02450220    -0.85480
Zr1243     Zr  0.81073830  0.74348868  0.94508604     2.26420
Zr1244     Zr  0.81114497  0.75034900  0.06234232     2.06270
Zr1245     Zr  0.68751995  0.75031578  0.93634484     2.10050
Zr1246     Zr  0.75442232  0.81005688  0.94408225     1.78760
O1247       O  0.64973432  0.71259078  0.93042756    -0.94290
O1248       O  0.80064779  0.84111846  0.96055043    -0.42100
O1249       O  0.75305856  0.77732663  0.91264847    -0.78730
O1250       O  0.81354611  0.77744743  0.97407664    -0.97420
O1251       O  0.80994074  0.71690229  0.03287650    -0.90720
O1252       O  0.74524068  0.71688684  0.96670904    -0.93560
C1253       C  0.67487553  0.82981431  0.00057505     1.00190
C1254       C  0.59367417  0.74992305  0.99909329     1.13120
C1255       C  0.74791219  0.75333759  0.15291804     1.03900
O1256       O  0.85195347  0.78774582  0.06615270    -0.95720
O1257       O  0.88598680  0.74815575  0.03935967    -0.91460
O1258       O  0.88569598  0.74314439  0.97020856    -0.84610
C1259       C  0.90534397  0.74550453  0.00484625     1.10540
O1260       O  0.69489375  0.66322213  0.12259765    -0.97690
Zr1261     Zr  0.74448214  0.69054674  0.05443573     1.88940
O1262       O  0.83491375  0.69663989  0.96468944    -0.74340
O1263       O  0.84754319  0.71295775  0.13380202    -0.53600
O1264       O  0.78600402  0.66133823  0.12905361    -0.98280
O1265       O  0.69903895  0.65846235  0.03957643    -0.55500
O1266       O  0.79542985  0.66512981  0.03012260    -0.74860
C1267       C  0.82516747  0.67142300  0.99720197     0.97490
O1268       O  0.85904844  0.77062266  0.87513919    -0.63680
O1269       O  0.65048064  0.78732785  0.86486031    -0.58480
O1270       O  0.78800920  0.74404412  0.86888344    -0.95160
O1271       O  0.71481587  0.75045489  0.86242763    -0.93590
O1272       O  0.71437033  0.83993731  0.86872607    -0.93940
O1273       O  0.80256136  0.83847666  0.87526488    -0.92730
C1274       C  0.75173934  0.74758455  0.84589790     1.16330
H1275       H  0.66369428  0.79609334  0.95343226     0.32270
H1276       H  0.84039945  0.78792344  0.96376952     0.43130
H1277       H  0.74421706  0.70470915  0.95192696     0.36650
H1278       H  0.74342529  0.71251607  0.12193999     0.33130
H1279       H  0.78865832  0.86015801  0.93954335     0.24920
H1280       H  0.86252375  0.72261915  0.14987182     0.30860
H1281       H  0.78818992  0.64283557  0.13014457     0.36770
H1282       H  0.71483464  0.85879872  0.86635771     0.31230
H1283       H  0.62846487  0.77736710  0.85557895     0.30100
H1284       H  0.63224719  0.72218357  0.89978199     0.31780
H1285       H  0.71504984  0.64041771  0.05480791     0.30750
H1286       H  0.81764519  0.82475609  0.86796577     0.34750
H1287       H  0.83992288  0.78382442  0.84811751     0.27480
H1288       H  0.62835652  0.74950619  0.13076472     0.31720
H1289       H  0.70408765  0.64339631  0.13614001     0.34570
H1290       H  0.63332704  0.79774121  0.87799042     0.27180
H1291       H  0.87580612  0.78300289  0.88436385     0.40050
H1292       H  0.82989205  0.79886553  0.07265357     0.30100
H1293       H  0.79327771  0.83686870  0.99472917     0.37720
H1294       H  0.70081339  0.66509216  0.00358523     0.29570
H1295       H  0.82386186  0.70219878  0.15693517     0.29630
H1296       H  0.64973375  0.71994648  0.14742722     0.29900
C1297       C  0.47650116  0.74480996  0.96555952    -0.14470
C1298       C  0.45359657  0.74498692  0.00494227     0.07680
C1299       C  0.47726913  0.74634033  0.04280796    -0.14470
C1300       C  0.52264837  0.74778638  0.04105975    -0.14470
C1301       C  0.54552344  0.74792239  0.00139275     0.07680
C1302       C  0.52186509  0.74626996  0.96379762    -0.14470
H1303       H  0.45939225  0.74385682  0.93567210     0.11660
H1304       H  0.46075708  0.74648426  0.07374182     0.11660
H1305       H  0.53975637  0.74893985  0.07076096     0.11660
H1306       H  0.53834274  0.74630603  0.93269117     0.11660
C1307       C  0.02241187  0.75012442  0.03909218    -0.14470
C1308       C  0.04545970  0.74824672  0.00134100     0.07680
C1309       C  0.02199410  0.74484494  0.96538163    -0.14470
C1310       C  0.97662812  0.74359193  0.96689145    -0.14470
C1311       C  0.95355872  0.74573412  0.00437450     0.07680
C1312       C  0.97703972  0.74888750  0.04058519    -0.14470
H1313       H  0.03937602  0.75271969  0.06744708     0.11660
H1314       H  0.03863112  0.74325452  0.93583055     0.11660
H1315       H  0.95965963  0.74116358  0.93836540     0.11660
H1316       H  0.96039032  0.75063101  0.06997900     0.11660
C1317       C  0.40575745  0.63029286  0.96360605    -0.14470
C1318       C  0.40100689  0.60270655  0.00259634     0.07680
C1319       C  0.37158089  0.59771961  0.04086215    -0.14470
C1320       C  0.34732535  0.61974306  0.03998959    -0.14470
C1321       C  0.35187357  0.64730043  0.00081321     0.07680
C1322       C  0.38149957  0.65230195  0.96272043    -0.14470
H1323       H  0.42797672  0.63491598  0.93337931     0.11660
H1324       H  0.36715730  0.57676751  0.07151609     0.11660
H1325       H  0.32502088  0.61512457  0.07014259     0.11660
H1326       H  0.38587529  0.67323255  0.93199018     0.11660
C1327       C  0.64003986  0.90337941  0.97070335    -0.14470
C1328       C  0.60109017  0.89817826  0.99756382     0.07680
C1329       C  0.58686185  0.87026025  0.02580161    -0.14470
C1330       C  0.61099971  0.84807613  0.02718340    -0.14470
C1331       C  0.64995043  0.85326547  0.00034345     0.07680
C1332       C  0.66418611  0.88118696  0.97208396    -0.14470
H1333       H  0.65214315  0.92459786  0.94893476     0.11660
H1334       H  0.55692185  0.86550306  0.04679654     0.11660
H1335       H  0.59887160  0.82686373  0.04894247     0.11660
H1336       H  0.69411206  0.88593493  0.95106492     0.11660
C1337       C  0.77264570  0.50044950  0.95976194    -0.14470
C1338       C  0.79647033  0.49806188  0.00055673     0.07680
C1339       C  0.77381005  0.99415408  0.04306061    -0.14470
C1340       C  0.72842519  0.99293935  0.04455162    -0.14470
C1341       C  0.70459370  0.99559203  0.00358566     0.07680
C1342       C  0.72727092  0.49922210  0.96126329    -0.14470
H1343       H  0.78901089  0.50358625  0.92635606     0.11660
H1344       H  0.79111735  0.99204894  0.07527946     0.11660
H1345       H  0.71202226  0.98998822  0.07782268     0.11660
H1346       H  0.70995893  0.50151991  0.92891491     0.11660
C1347       C  0.22779908  0.50386615  0.03644922    -0.14470
C1348       C  0.20454721  0.99605912  0.00561681     0.07680
C1349       C  0.22784978  0.98936120  0.97336666    -0.14470
C1350       C  0.27322563  0.99071413  0.97162605    -0.14470
C1351       C  0.29645390  0.49876585  0.00213197     0.07680
C1352       C  0.27318666  0.50519433  0.03473921    -0.14470
H1353       H  0.21093490  0.50930944  0.06155343     0.11660
H1354       H  0.21104292  0.98314714  0.94924691     0.11660
H1355       H  0.29008943  0.98542172  0.94632690     0.11660
H1356       H  0.29000080  0.51155131  0.05866196     0.11660
C1357       C  0.91226821  0.63126865  0.96948338    -0.14470
C1358       C  0.89926789  0.60321851  0.99936328     0.07680
C1359       C  0.86139725  0.59785549  0.02809213    -0.14470
C1360       C  0.83719775  0.61996071  0.02704291    -0.14470
C1361       C  0.85024168  0.64800730  0.99724831     0.07680
C1362       C  0.88806908  0.65337784  0.96844006    -0.14470
H1363       H  0.94130080  0.63619365  0.94694851     0.11660
H1364       H  0.85020396  0.57654428  0.05122393     0.11660
H1365       H  0.80817441  0.61502920  0.04959321     0.11660
H1366       H  0.89927465  0.67468946  0.94533546     0.11660
C1367       C  0.08719903  0.86926142  0.02897408    -0.14470
C1368       C  0.10172295  0.89714539  0.00108568     0.07680
C1369       C  0.14091887  0.90221964  0.97467910    -0.14470
C1370       C  0.16487505  0.87998406  0.97590944    -0.14470
C1371       C  0.15022888  0.85211213  0.00355287     0.07680
C1372       C  0.11114947  0.84702151  0.03018802    -0.14470
H1373       H  0.05709133  0.86459277  0.04965634     0.11660
H1374       H  0.15330443  0.92339263  0.95325720     0.11660
H1375       H  0.19493768  0.88466931  0.95514573     0.11660
H1376       H  0.09872573  0.82585454  0.05155053     0.11660
C1377       C  0.71292618  0.75254623  0.72519477    -0.14470
C1378       C  0.75212648  0.75171856  0.70248693     0.07680
C1379       C  0.79145247  0.74943833  0.72745120    -0.14470
C1380       C  0.79147575  0.74787946  0.77416031    -0.14470
C1381       C  0.75218253  0.74870403  0.79680637     0.07680
C1382       C  0.71295475  0.75110734  0.77163790    -0.14470
H1383       H  0.68202308  0.75435634  0.70706207     0.11660
H1384       H  0.82222781  0.74861901  0.71111433     0.11660
H1385       H  0.82229297  0.74612125  0.79241077     0.11660
H1386       H  0.68204679  0.75186187  0.78779755     0.11660
C1387       C  0.70807959  0.74744001  0.27456437    -0.14470
C1388       C  0.74742166  0.74767780  0.29767755     0.07680
C1389       C  0.78661948  0.75015119  0.27239353    -0.14470
C1390       C  0.78658169  0.75224917  0.22542898    -0.14470
C1391       C  0.74734512  0.75198959  0.20224755     0.07680
C1392       C  0.70804004  0.74960723  0.22735531    -0.14470
H1393       H  0.67726776  0.74566758  0.29284361     0.11660
H1394       H  0.81756836  0.75053085  0.28881133     0.11660
H1395       H  0.81749869  0.75406199  0.20731263     0.11660
H1396       H  0.67722241  0.74920139  0.21072502     0.11660
C1397       C  0.21310144  0.74795653  0.72883728    -0.14470
C1398       C  0.25222740  0.75096479  0.70311830     0.07680
C1399       C  0.29149171  0.75216434  0.72547318    -0.14470
C1400       C  0.29152772  0.75041934  0.77236285    -0.14470
C1401       C  0.25228717  0.74758986  0.79782185     0.07680
C1402       C  0.21312880  0.74634836  0.77543739    -0.14470
H1403       H  0.18221422  0.74687059  0.71297525     0.11660
H1404       H  0.32224272  0.75438599  0.70683113     0.11660
H1405       H  0.32226674  0.75157251  0.78842578     0.11660
H1406       H  0.18229254  0.74408405  0.79395686     0.11660
C1407       C  0.20805107  0.75170794  0.27138985    -0.14470
C1408       C  0.24698946  0.74723873  0.29808725     0.07680
C1409       C  0.28591250  0.74443236  0.27696964    -0.14470
C1410       C  0.28603187  0.74619873  0.23027837    -0.14470
C1411       C  0.24723441  0.75088778  0.20329119     0.07680
C1412       C  0.20817768  0.75355259  0.22445942    -0.14470
H1413       H  0.17752665  0.75412068  0.28647152     0.11660
H1414       H  0.31648300  0.74086164  0.29652161     0.11660
H1415       H  0.31670316  0.74382359  0.21541613     0.11660
H1416       H  0.17768552  0.75710699  0.20477938     0.11660
C1417       C  0.52250936  0.75126100  0.45928538    -0.14470
C1418       C  0.54542060  0.75181595  0.49833298     0.07680
C1419       C  0.52178440  0.75411021  0.53533189    -0.14470
C1420       C  0.47641572  0.75552903  0.53360015    -0.14470
C1421       C  0.45347330  0.75467028  0.49484269     0.07680
C1422       C  0.47712304  0.75266883  0.45756472    -0.14470
H1423       H  0.53959351  0.74958062  0.43006740     0.11660
H1424       H  0.53828527  0.75463111  0.56593925     0.11660
H1425       H  0.45933561  0.75701471  0.56300959     0.11660
H1426       H  0.46058867  0.75196640  0.42713869     0.11660
C1427       C  0.02241129  0.75067165  0.46000683    -0.14470
C1428       C  0.04533903  0.75120503  0.49905473     0.07680
C1429       C  0.02176481  0.75326687  0.53630756    -0.14470
C1430       C  0.97640529  0.75453910  0.53476041    -0.14470
C1431       C  0.95345994  0.75375453  0.49594628     0.07680
C1432       C  0.97704555  0.75192449  0.45847913    -0.14470
H1433       H  0.03946739  0.74916687  0.43060248     0.11660
H1434       H  0.03830712  0.75375070  0.56692612     0.11660
H1435       H  0.95934085  0.75586561  0.56433060     0.11660
H1436       H  0.96048354  0.75128695  0.42800885     0.11660
C1437       C  0.46311132  0.99663238  0.73026601    -0.14470
C1438       C  0.50209230  0.50023262  0.70401662     0.07680
C1439       C  0.54129687  0.50232184  0.72555925    -0.14470
C1440       C  0.54142999  0.50089941  0.77215951    -0.14470
C1441       C  0.50234394  0.99750751  0.79813480     0.07680
C1442       C  0.46323152  0.99534757  0.77661582    -0.14470
H1443       H  0.43229546  0.99484291  0.71501084     0.11660
H1444       H  0.57193672  0.50504385  0.70646732     0.11660
H1445       H  0.57211083  0.50277289  0.78756882     0.11660
H1446       H  0.43253678  0.99260709  0.79562871     0.11660
C1447       C  0.45956128  0.00078212  0.22661461    -0.14470
C1448       C  0.49897684  0.50229818  0.20226217     0.07680
C1449       C  0.53820535  0.50198181  0.22592737    -0.14470
C1450       C  0.53810455  0.50017745  0.27266755    -0.14470
C1451       C  0.49877203  0.99857194  0.29717080     0.07680
C1452       C  0.45946126  0.99889853  0.27357029    -0.14470
H1453       H  0.42873721  0.00085788  0.20957797     0.11660
H1454       H  0.56919498  0.50309786  0.20838772     0.11660
H1455       H  0.56903208  0.50005056  0.28956222     0.11660
H1456       H  0.42856209  0.99780141  0.29125873     0.11660
C1457       C  0.36640499  0.90253787  0.46330223    -0.14470
C1458       C  0.40084270  0.89712839  0.49667911     0.07680
C1459       C  0.41051847  0.86906801  0.53099452    -0.14470
C1460       C  0.38616873  0.84700485  0.53218819    -0.14470
C1461       C  0.35152512  0.85241649  0.49906910     0.07680
C1462       C  0.34206299  0.88046503  0.46447671    -0.14470
H1463       H  0.35794968  0.92386376  0.43644364     0.11660
H1464       H  0.43681420  0.86407564  0.55726836     0.11660
H1465       H  0.39457801  0.82568620  0.55912275     0.11660
H1466       H  0.31569019  0.88544703  0.43829690     0.11660
C1467       C  0.63859594  0.59625323  0.53102161    -0.14470
C1468       C  0.60009212  0.60152327  0.50339796     0.07680
C1469       C  0.58641588  0.62949916  0.47433254    -0.14470
C1470       C  0.61067694  0.65166496  0.47284837    -0.14470
C1471       C  0.64919797  0.64640436  0.50042264     0.07680
C1472       C  0.66285601  0.61842645  0.52955034    -0.14470
H1473       H  0.65027579  0.57499043  0.55347023     0.11660
H1474       H  0.55684332  0.63432556  0.45270681     0.11660
H1475       H  0.59899229  0.67292556  0.45039083     0.11660
H1476       H  0.69242815  0.61361429  0.55117533     0.11660
C1477       C  0.04302615  0.50173647  0.72596215    -0.14470
C1478       C  0.00361350  0.50105976  0.70333923     0.07680
C1479       C  0.96453267  0.99844440  0.72887872    -0.14470
C1480       C  0.96473509  0.99670006  0.77556505    -0.14470
C1481       C  0.00402700  0.99742688  0.79823731     0.07680
C1482       C  0.04323546  0.49986812  0.77295641    -0.14470
H1483       H  0.07375421  0.50362277  0.70746344     0.11660
H1484       H  0.93354060  0.99777211  0.71280840     0.11660
H1485       H  0.93389561  0.99476762  0.79389706     0.11660
H1486       H  0.07407188  0.50061985  0.78923496     0.11660
C1487       C  0.03633010  0.50225200  0.27105582    -0.14470
C1488       C  0.99730598  0.99834680  0.29736972     0.07680
C1489       C  0.95811498  0.99683816  0.27519613    -0.14470
C1490       C  0.95808420  0.99905680  0.22795047    -0.14470
C1491       C  0.99724987  0.50277090  0.20190562     0.07680
C1492       C  0.03630165  0.50440954  0.22406933    -0.14470
H1493       H  0.06713974  0.50370833  0.28668007     0.11660
H1494       H  0.92744231  0.99393001  0.29431094     0.11660
H1495       H  0.92743237  0.99755691  0.21208989     0.11660
H1496       H  0.06708459  0.50732830  0.20514549     0.11660
C1497       C  0.77302596  0.50175686  0.45991223    -0.14470
C1498       C  0.79592468  0.00136140  0.49976225     0.07680
C1499       C  0.77230210  0.00267227  0.53770959    -0.14470
C1500       C  0.72693206  0.00407966  0.53607386    -0.14470
C1501       C  0.70401519  0.50420192  0.49645711     0.07680
C1502       C  0.72765883  0.50316274  0.45827870    -0.14470
H1503       H  0.79010954  0.50088321  0.42993306     0.11660
H1504       H  0.78881366  0.00241166  0.56897916     0.11660
H1505       H  0.70983269  0.00477755  0.56620497     0.11660
H1506       H  0.71113533  0.50325154  0.42716002     0.11660
C1507       C  0.22755742  0.50159162  0.45822308    -0.14470
C1508       C  0.20397764  0.50374902  0.49538970     0.07680
C1509       C  0.22696075  0.00474055  0.53399624    -0.14470
C1510       C  0.27231219  0.00331973  0.53568071    -0.14470
C1511       C  0.29589047  0.00090767  0.49876759     0.07680
C1512       C  0.27294229  0.50019909  0.45987990    -0.14470
H1513       H  0.21097225  0.50078771  0.42791535     0.11660
H1514       H  0.20992804  0.00634278  0.56331997     0.11660
H1515       H  0.28884717  0.00397400  0.56615151     0.11660
H1516       H  0.28999536  0.49842617  0.43073480     0.11660
C1517       C  0.87307831  0.90078700  0.46047334    -0.14470
C1518       C  0.89955332  0.89622474  0.50085335     0.07680
C1519       C  0.90146949  0.86906015  0.54169095    -0.14470
C1520       C  0.87748443  0.84703127  0.54214991    -0.14470
C1521       C  0.85096883  0.85160609  0.50178316     0.07680
C1522       C  0.84910166  0.87876288  0.46092962    -0.14470
H1523       H  0.87094410  0.92139327  0.42833395     0.11660
H1524       H  0.92127697  0.86481164  0.57359099     0.11660
H1525       H  0.87959975  0.82642713  0.57429657     0.11660
H1526       H  0.82928167  0.88302367  0.42903308     0.11660
C1527       C  0.08752213  0.63042442  0.47013532    -0.14470
C1528       C  0.10119639  0.60245250  0.49932196     0.07680
C1529       C  0.13967516  0.59726368  0.52697500    -0.14470
C1530       C  0.16373822  0.61946537  0.52570886    -0.14470
C1531       C  0.14992556  0.64742755  0.49678515     0.07680
C1532       C  0.11157973  0.65263289  0.46888789    -0.14470
H1533       H  0.05800443  0.63519948  0.44842705     0.11660
H1534       H  0.15140864  0.57601841  0.54946124     0.11660
H1535       H  0.19320800  0.61467267  0.54749793     0.11660
H1536       H  0.09980937  0.67387504  0.44646497     0.11660
loop_ 
_geom_bond_atom_site_label_1 
_geom_bond_atom_site_label_2 
_geom_bond_distance 
_geom_bond_site_symmetry_2 
_ccdc_geom_bond_type 
Zr1           O3   2.434       .  S
Zr1           O4   2.443       .  S
Zr1           O7   2.430       .  S
Zr1           O9   2.379   1_655  S
Zr1          O10   2.382       .  S
Zr1         O779   2.406       .  S
Zr1         O780   2.404       .  S
Zr1         O770   2.440       .  S
O2         Zr769   2.440   1_545  S
O2           H58   0.990   1_545  S
O2           H66   0.990       .  S
O3           C23   1.285       .  A
O4           C25   1.286       .  A
O5          Zr15   2.427   1_545  S
O5          C792   1.285   1_545  A
O6          Zr14   2.423       .  S
O6           C25   1.283   1_455  A
O7           C24   1.285       .  A
O8          Zr16   2.426   1_655  S
O8           C23   1.283       .  A
O9          Zr14   2.393       .  S
O9          Zr16   2.377       .  S
O10         Zr16   2.374   1_655  S
O10        Zr783   2.390       .  S
O10          H45   0.966       .  S
O11         Zr31   2.396       .  S
O11        Zr769   2.406   1_545  S
O11        Zr782   2.399   1_645  S
O11          H48   0.966       .  S
O12         Zr15   2.389   1_545  S
O12         Zr31   2.394       .  S
O12        Zr769   2.404   1_545  S
Zr13         O32   2.432       .  S
Zr13         O40   2.436       .  S
Zr13         O28   2.430       .  S
Zr13         O21   2.377       .  S
Zr13         O22   2.380   1_455  S
Zr13        O787   2.400   1_545  S
Zr13        O788   2.403   1_545  S
Zr13        O806   2.445   1_545  S
Zr14         O27   2.429       .  S
Zr14         O20   2.392       .  S
Zr14        O779   2.399   1_455  S
Zr14        O789   2.385       .  S
Zr14         O26   2.436       .  S
Zr14        O801   2.436       .  S
Zr15         O41   2.427       .  S
Zr15         O22   2.385   1_565  S
Zr15        O778   2.390       .  S
Zr15        O787   2.391   1_655  S
Zr15         O17   2.435   1_565  S
Zr15        O807   2.437       .  S
Zr16         O19   2.396       .  S
Zr16         O20   2.395       .  S
Zr16         O42   2.434   1_455  S
Zr16         O43   2.435       .  S
Zr16         O18   2.437       .  S
O17          H54   0.990       .  S
O18          H49   0.990       .  S
O18          H63   0.990       .  S
O19        Zr781   2.400       .  S
O19        Zr783   2.391   1_455  S
O20        Zr781   2.403       .  S
O20          H46   0.966       .  S
O21         Zr31   2.374   1_455  S
O21        Zr782   2.385   1_545  S
O22         Zr31   2.377       .  S
O22          H47   0.966       .  S
C23         C750   1.485       .  S
C24         O773   1.285       .  A
C24         C730   1.484       .  S
C25         C720   1.485       .  S
O26          H62   0.990       .  S
O27         C797   1.285       .  A
O28          C29   1.285       .  A
C29         O795   1.285       .  A
C29         C740   1.484       .  S
O30         Zr31   2.439       .  S
O30          H59   0.990       .  S
Zr31         O36   2.427   1_655  S
Zr31         O34   2.436   1_655  S
Zr31         O35   2.441       .  S
O32          C37   1.285       .  A
O33        Zr782   2.436   1_545  S
O33          H50   0.990       .  S
O33          H65   0.990       .  S
O34          H51   0.990       .  S
O35          H55   0.990       .  S
O35          H64   0.989       .  S
O36          C37   1.284       .  A
C37         C760   1.484       .  S
O38        Zr781   2.445       .  S
O38          H57   0.990       .  S
O38          H61   0.990       .  S
O39        Zr783   2.437       .  S
O39          H53   0.990       .  S
O39          H60   0.990       .  S
O40          C44   1.286       .  A
O41          C44   1.285   1_665  A
O42          H52   0.990       .  S
O43          H56   0.990       .  S
C44         C710   1.486       .  S
Zr67         O69   2.433       .  S
Zr67         O70   2.440       .  S
Zr67         O73   2.429       .  S
Zr67         O75   2.380       .  S
Zr67         O76   2.381       .  S
Zr67        O845   2.404       .  S
Zr67        O846   2.402       .  S
Zr67        O836   2.440       .  S
O68        Zr835   2.440   1_545  S
O68         H124   0.990       .  S
O68         H132   0.990       .  S
O69          C89   1.284       .  A
O70          C91   1.285       .  A
O71         Zr81   2.427       .  S
O71         C858   1.285       .  A
O72         Zr80   2.422       .  S
O72          C91   1.283       .  A
O73          C90   1.285       .  A
O74         Zr82   2.422       .  S
O74          C89   1.282       .  A
O75         Zr80   2.392       .  S
O75         Zr82   2.376       .  S
O76         Zr82   2.374       .  S
O76        Zr849   2.388       .  S
O76         H111   0.966       .  S
O77         Zr97   2.396       .  S
O77        Zr835   2.404   1_545  S
O77        Zr848   2.398       .  S
O77         H114   0.966       .  S
O78         Zr81   2.389   1_545  S
O78         Zr97   2.393       .  S
O78        Zr835   2.402   1_545  S
Zr79         O98   2.429       .  S
Zr79        O106   2.434       .  S
Zr79         O94   2.431       .  S
Zr79         O87   2.378       .  S
Zr79         O88   2.380       .  S
Zr79        O853   2.400   1_545  S
Zr79        O854   2.402   1_545  S
Zr79        O872   2.445   1_545  S
Zr80         O93   2.429       .  S
Zr80         O86   2.392       .  S
Zr80        O845   2.398       .  S
Zr80        O855   2.384       .  S
Zr80         O92   2.435       .  S
Zr80        O867   2.436       .  S
Zr81        O107   2.426       .  S
Zr81         O88   2.385   1_565  S
Zr81        O844   2.388       .  S
Zr81        O853   2.391       .  S
Zr81         O83   2.435   1_565  S
Zr81        O873   2.437       .  S
Zr82         O85   2.396       .  S
Zr82         O86   2.393       .  S
Zr82        O108   2.434       .  S
Zr82        O109   2.435       .  S
Zr82         O84   2.437       .  S
O83         H120   0.990       .  S
O84         H115   0.990       .  S
O84         H129   0.990       .  S
O85        Zr847   2.400       .  S
O85        Zr849   2.391       .  S
O86        Zr847   2.402       .  S
O86         H112   0.966       .  S
O87         Zr97   2.374       .  S
O87        Zr848   2.384       .  S
O88         Zr97   2.376       .  S
O88         H113   0.966       .  S
C89         C690   1.484       .  S
C90         O839   1.285       .  A
C90         C743   1.484       .  S
C91         C683   1.484       .  S
O92         H128   0.990       .  S
O93         C863   1.285       .  A
O94          C95   1.285       .  A
C95         O861   1.285       .  A
C95         C733   1.484       .  S
O96         Zr97   2.439       .  S
O96         H125   0.990       .  S
Zr97        O102   2.424       .  S
Zr97        O100   2.436       .  S
Zr97        O101   2.441       .  S
O98         C103   1.285       .  A
O99        Zr848   2.436       .  S
O99         H116   0.990       .  S
O99         H131   0.990       .  S
O100        H117   0.990       .  S
O101        H121   0.990       .  S
O101        H130   0.989       .  S
O102        C103   1.283       .  A
C103        C700   1.483       .  S
O104       Zr847   2.445       .  S
O104        H123   0.990       .  S
O104        H127   0.990       .  S
O105       Zr849   2.437       .  S
O105        H119   0.990       .  S
O105        H126   0.990       .  S
O106        C110   1.286       .  A
O107        C110   1.285   1_565  A
O108        H118   0.990       .  S
O109        H122   0.990       .  S
C110        C670   1.485       .  S
Zr133       O135   2.433       .  S
Zr133       O136   2.438       .  S
Zr133       O139   2.427       .  S
Zr133       O141   2.380       .  S
Zr133       O142   2.381       .  S
Zr133       O143   2.405       .  S
Zr133       O144   2.402       .  S
Zr133       O134   2.440       .  S
O134        H190   0.990       .  S
O134        H198   0.990       .  S
O135        C155   1.284       .  A
O136        C157   1.285       .  A
O137       Zr147   2.427       .  S
O137        C156   1.285       .  A
O138       Zr146   2.424       .  S
O138        C157   1.284       .  A
O139        C156   1.285       .  A
O140       Zr148   2.426       .  S
O140        C155   1.283       .  A
O141       Zr146   2.392       .  S
O141       Zr148   2.375       .  S
O142       Zr147   2.389       .  S
O142       Zr148   2.374       .  S
O142        H177   0.966       .  S
O143       Zr146   2.398       .  S
O143       Zr163   2.395       .  S
O143        H180   0.966       .  S
O144       Zr147   2.388       .  S
O144       Zr163   2.393       .  S
Zr145       O164   2.431       .  S
Zr145       O172   2.438       .  S
Zr145       O160   2.431       .  S
Zr145       O151   2.400       .  S
Zr145       O152   2.404       .  S
Zr145       O153   2.378       .  S
Zr145       O154   2.380       .  S
Zr145       O170   2.445       .  S
Zr146       O159   2.430       .  S
Zr146       O152   2.393       .  S
Zr146       O153   2.385       .  S
Zr146       O165   2.436       .  S
Zr146       O158   2.436       .  S
Zr147       O173   2.425       .  S
Zr147       O151   2.391       .  S
Zr147       O154   2.384       .  S
Zr147       O149   2.435       .  S
Zr147       O171   2.437       .  S
Zr148       O151   2.397       .  S
Zr148       O152   2.394       .  S
Zr148       O174   2.434       .  S
Zr148       O175   2.435       .  S
Zr148       O150   2.437       .  S
O149        H186   0.990       .  S
O150        H181   0.990       .  S
O150        H195   0.990       .  S
O152        H178   0.966       .  S
O153       Zr163   2.374       .  S
O154       Zr163   2.378       .  S
O154        H179   0.966       .  S
C155        C763   1.485       .  S
C156        C660   1.483       .  S
C157        C640   1.483       .  S
O158        H194   0.990       .  S
O159        C161   1.285       .  A
O160        C161   1.285       .  A
C161        C653   1.485       .  S
O162       Zr163   2.439       .  S
O162        H191   0.990       .  S
Zr163       O168   2.425       .  S
Zr163       O166   2.436       .  S
Zr163       O167   2.441       .  S
O164        C169   1.285       .  A
O165        H182   0.990       .  S
O165        H197   0.990       .  S
O166        H183   0.990       .  S
O167        H187   0.990       .  S
O167        H196   0.989       .  S
O168        C169   1.283       .  A
C169        C693   1.484       .  S
O170        H189   0.990       .  S
O170        H193   0.990       .  S
O171        H185   0.990       .  S
O171        H192   0.990       .  S
O172        C176   1.286       .  A
O173        C176   1.285       .  A
O174        H184   0.990       .  S
O175        H188   0.990       .  S
C176        C630   1.486       .  S
Zr199       O201   2.433       .  S
Zr199       O202   2.443       .  S
Zr199       O205   2.430       .  S
Zr199       O207   2.380       .  S
Zr199       O208   2.381       .  S
Zr199       O209   2.406       .  S
Zr199       O210   2.403       .  S
Zr199       O200   2.440       .  S
O200        H256   0.990       .  S
O200        H264   0.990       .  S
O201        C221   1.285       .  A
O202        C223   1.286       .  A
O203       Zr213   2.428       .  S
O203        C222   1.285       .  A
O204       Zr212   2.424       .  S
O204        C223   1.284       .  A
O205        C222   1.285       .  A
O206       Zr214   2.420       .  S
O206        C221   1.282       .  A
O207       Zr212   2.392       .  S
O207       Zr214   2.378       .  S
O208       Zr213   2.388       .  S
O208       Zr214   2.375       .  S
O208        H243   0.966       .  S
O209       Zr212   2.398       .  S
O209       Zr229   2.396       .  S
O209        H246   0.966       .  S
O210       Zr213   2.389       .  S
O210       Zr229   2.395       .  S
Zr211       O230   2.430       .  S
Zr211       O238   2.433       .  S
Zr211       O226   2.429       .  S
Zr211       O217   2.399       .  S
Zr211       O218   2.402       .  S
Zr211       O219   2.378       .  S
Zr211       O220   2.379       .  S
Zr211       O236   2.445       .  S
Zr212       O225   2.428       .  S
Zr212       O218   2.393       .  S
Zr212       O219   2.386       .  S
Zr212       O231   2.436       .  S
Zr212       O224   2.436       .  S
Zr213       O239   2.425       .  S
Zr213       O217   2.392       .  S
Zr213       O220   2.385       .  S
Zr213       O215   2.435       .  S
Zr213       O237   2.437       .  S
Zr214       O217   2.396       .  S
Zr214       O218   2.392       .  S
Zr214       O240   2.434       .  S
Zr214       O241   2.435       .  S
Zr214       O216   2.437       .  S
O215        H252   0.990       .  S
O216        H247   0.990       .  S
O216        H261   0.990       .  S
O218        H244   0.966       .  S
O219       Zr229   2.372       .  S
O220       Zr229   2.376       .  S
O220        H245   0.966       .  S
C221        C703   1.482       .  S
C222        C650   1.485       .  S
C223        C620   1.486       .  S
O224        H260   0.990       .  S
O225        C227   1.285       .  A
O226        C227   1.285       .  A
C227        C663   1.483       .  S
O228       Zr229   2.439       .  S
O228        H257   0.990       .  S
Zr229       O234   2.430       .  S
Zr229       O232   2.436       .  S
Zr229       O233   2.441       .  S
O230        C235   1.285       .  A
O231        H248   0.990       .  S
O231        H263   0.990       .  S
O232        H249   0.990       .  S
O233        H253   0.990       .  S
O233        H262   0.989       .  S
O234        C235   1.284       .  A
C235        C753   1.485       .  S
O236        H255   0.990       .  S
O236        H259   0.990       .  S
O237        H251   0.990       .  S
O237        H258   0.990       .  S
O238        C242   1.285       .  A
O239        C242   1.285       .  A
O240        H250   0.990       .  S
O241        H254   0.990       .  S
C242        C610   1.483       .  S
Zr265       O267   2.434       .  S
Zr265       O268   2.442       .  S
Zr265       O271   2.428       .  S
Zr265       O273   2.380   1_655  S
Zr265       O274   2.381   1_554  S
Zr265      O1043   2.405   1_545  S
Zr265      O1044   2.403   1_545  S
Zr265      O1034   2.440   1_545  S
O266      Zr1033   2.440       .  S
O266        H322   0.990       .  S
O266        H330   0.990       .  S
O267        C287   1.285   1_554  A
O268        C289   1.285       .  A
O269       Zr279   2.427       .  S
O269       C1056   1.285       .  A
O270       Zr278   2.423       .  S
O270        C289   1.284   1_455  A
O271        C288   1.285   1_544  A
O272       Zr280   2.426   1_655  S
O272        C287   1.283       .  A
O273       Zr278   2.393       .  S
O273       Zr280   2.377   1_554  S
O274       Zr280   2.374   1_655  S
O274      Zr1047   2.389   1_545  S
O274        H309   0.966       .  S
O275       Zr295   2.396       .  S
O275      Zr1033   2.405       .  S
O275      Zr1046   2.399   1_655  S
O275        H312   0.966       .  S
O276       Zr279   2.389   1_554  S
O276       Zr295   2.394       .  S
O276      Zr1033   2.403       .  S
Zr277       O296   2.432       .  S
Zr277       O304   2.439       .  S
Zr277       O292   2.432       .  S
Zr277       O285   2.378   1_556  S
Zr277       O286   2.380   1_455  S
Zr277      O1051   2.401       .  S
Zr277      O1052   2.404       .  S
Zr277      O1070   2.445       .  S
Zr278       O291   2.430   1_545  S
Zr278       O284   2.393   1_554  S
Zr278      O1043   2.399   1_445  S
Zr278      O1053   2.386   1_545  S
Zr278       O290   2.436       .  S
Zr278      O1065   2.436   1_545  S
Zr279       O305   2.424       .  S
Zr279       O286   2.385       .  S
Zr279      O1042   2.389       .  S
Zr279      O1051   2.391   1_655  S
Zr279       O281   2.435       .  S
Zr279      O1071   2.437       .  S
Zr280       O283   2.397       .  S
Zr280       O284   2.395       .  S
Zr280       O306   2.434   1_455  S
Zr280       O307   2.435       .  S
Zr280       O282   2.437       .  S
O281        H318   0.990       .  S
O282        H313   0.990       .  S
O282        H327   0.990       .  S
O283      Zr1045   2.401   1_545  S
O283      Zr1047   2.391   1_445  S
O284      Zr1045   2.404   1_545  S
O284        H310   0.966       .  S
O285       Zr295   2.374   1_455  S
O285      Zr1046   2.386       .  S
O286       Zr295   2.376   1_556  S
O286        H311   0.966       .  S
C287        C590   1.485       .  S
C288       O1037   1.285       .  A
C288        C570   1.483   1_556  S
C289        C723   1.485       .  S
O290        H326   0.990       .  S
O291       C1061   1.285       .  A
O292        C293   1.285   1_556  A
C293       O1059   1.285       .  A
C293        C580   1.484       .  S
O294       Zr295   2.439       .  S
O294        H323   0.990       .  S
Zr295       O300   2.427   1_655  S
Zr295       O298   2.436   1_655  S
Zr295       O299   2.440       .  S
O296        C301   1.285   1_556  A
O297      Zr1046   2.436       .  S
O297        H314   0.990       .  S
O297        H329   0.990       .  S
O298        H315   0.990       .  S
O299        H319   0.990       .  S
O299        H328   0.989       .  S
O300        C301   1.284       .  A
C301        C600   1.484       .  S
O302      Zr1045   2.445   1_545  S
O302        H321   0.990       .  S
O302        H325   0.990       .  S
O303      Zr1047   2.437   1_545  S
O303        H317   0.990       .  S
O303        H324   0.990       .  S
O304        C308   1.286       .  A
O305        C308   1.284   1_655  A
O306        H316   0.990       .  S
O307        H320   0.990       .  S
C308        C713   1.485       .  S
Zr331       O333   2.432       .  S
Zr331       O334   2.437       .  S
Zr331       O337   2.429       .  S
Zr331       O339   2.379       .  S
Zr331       O340   2.381   1_554  S
Zr331      O1109   2.405   1_545  S
Zr331      O1110   2.402   1_545  S
Zr331      O1100   2.440   1_545  S
O332      Zr1099   2.440       .  S
O332        H388   0.990       .  S
O332        H396   0.990       .  S
O333        C353   1.284       .  A
O334        C355   1.285       .  A
O335       Zr345   2.429       .  S
O335       C1122   1.285       .  A
O336       Zr344   2.425       .  S
O336        C355   1.284       .  A
O337        C354   1.285   1_554  A
O338       Zr346   2.422       .  S
O338        C353   1.282   1_556  A
O339       Zr344   2.392       .  S
O339       Zr346   2.376   1_554  S
O340       Zr346   2.375       .  S
O340      Zr1113   2.388       .  S
O340        H375   0.966       .  S
O341       Zr361   2.395       .  S
O341      Zr1099   2.405       .  S
O341      Zr1112   2.398       .  S
O341        H378   0.966       .  S
O342       Zr345   2.389   1_554  S
O342       Zr361   2.393       .  S
O342      Zr1099   2.402       .  S
Zr343       O362   2.429       .  S
Zr343       O370   2.434       .  S
Zr343       O358   2.429       .  S
Zr343       O351   2.378   1_556  S
Zr343       O352   2.380       .  S
Zr343      O1117   2.399       .  S
Zr343      O1118   2.402       .  S
Zr343      O1136   2.445       .  S
Zr344       O357   2.430   1_545  S
Zr344       O350   2.393   1_554  S
Zr344      O1109   2.398   1_545  S
Zr344      O1119   2.385   1_545  S
Zr344       O356   2.435       .  S
Zr344      O1131   2.436   1_545  S
Zr345       O371   2.426       .  S
Zr345       O352   2.385       .  S
Zr345      O1108   2.388       .  S
Zr345      O1117   2.392       .  S
Zr345       O347   2.435       .  S
Zr345      O1137   2.437       .  S
Zr346       O349   2.396       .  S
Zr346       O350   2.393       .  S
Zr346       O372   2.434       .  S
Zr346       O373   2.435       .  S
Zr346       O348   2.437       .  S
O347        H384   0.990       .  S
O348        H379   0.990       .  S
O348        H393   0.990       .  S
O349      Zr1111   2.399   1_545  S
O349      Zr1113   2.392       .  S
O350      Zr1111   2.402   1_545  S
O350        H376   0.966       .  S
O351       Zr361   2.373       .  S
O351      Zr1112   2.385       .  S
O352       Zr361   2.375   1_556  S
O352        H377   0.966       .  S
C353        C550   1.483       .  S
C354       O1103   1.285   1_545  A
C354        C583   1.483   1_546  S
C355        C680   1.484       .  S
O356        H392   0.990       .  S
O357       C1127   1.285       .  A
O358        C359   1.285   1_556  A
C359       O1125   1.285       .  A
C359        C573   1.483       .  S
O360       Zr361   2.439       .  S
O360        H389   0.990       .  S
Zr361       O366   2.425       .  S
Zr361       O364   2.436       .  S
Zr361       O365   2.441       .  S
O362        C367   1.285       .  A
O363      Zr1112   2.436       .  S
O363        H380   0.990       .  S
O363        H395   0.990       .  S
O364        H381   0.990       .  S
O365        H385   0.990       .  S
O365        H394   0.989       .  S
O366        C367   1.283   1_554  A
C367        C560   1.482       .  S
O368      Zr1111   2.445   1_545  S
O368        H387   0.990       .  S
O368        H391   0.990       .  S
O369      Zr1113   2.437       .  S
O369        H383   0.990       .  S
O369        H390   0.990       .  S
O370        C374   1.286       .  A
O371        C374   1.285       .  A
O372        H382   0.990       .  S
O373        H386   0.990       .  S
C374        C673   1.483       .  S
Zr397       O399   2.433       .  S
Zr397       O400   2.439       .  S
Zr397       O403   2.427       .  S
Zr397       O405   2.380       .  S
Zr397       O406   2.381   1_554  S
Zr397       O407   2.405       .  S
Zr397       O408   2.402       .  S
Zr397       O398   2.440       .  S
O398        H454   0.990       .  S
O398        H462   0.990       .  S
O399        C419   1.285       .  A
O400        C421   1.285       .  A
O401       Zr411   2.427       .  S
O401        C420   1.285       .  A
O402       Zr410   2.423       .  S
O402        C421   1.283       .  A
O403        C420   1.285   1_554  A
O404       Zr412   2.426       .  S
O404        C419   1.283   1_556  A
O405       Zr410   2.392       .  S
O405       Zr412   2.376   1_554  S
O406       Zr411   2.390       .  S
O406       Zr412   2.374       .  S
O406        H441   0.966       .  S
O407       Zr410   2.398       .  S
O407       Zr427   2.394       .  S
O407        H444   0.966       .  S
O408       Zr411   2.388   1_554  S
O408       Zr427   2.393       .  S
Zr409       O428   2.430       .  S
Zr409       O436   2.437       .  S
Zr409       O424   2.431       .  S
Zr409       O415   2.400       .  S
Zr409       O416   2.403       .  S
Zr409       O417   2.378   1_556  S
Zr409       O418   2.380       .  S
Zr409       O434   2.445       .  S
Zr410       O423   2.430       .  S
Zr410       O416   2.393   1_554  S
Zr410       O417   2.384       .  S
Zr410       O429   2.436       .  S
Zr410       O422   2.436       .  S
Zr411       O437   2.427       .  S
Zr411       O415   2.391       .  S
Zr411       O418   2.384       .  S
Zr411       O413   2.435       .  S
Zr411       O435   2.437       .  S
Zr412       O415   2.398       .  S
Zr412       O416   2.394       .  S
Zr412       O438   2.434       .  S
Zr412       O439   2.435       .  S
Zr412       O414   2.437       .  S
O413        H450   0.990       .  S
O414        H445   0.990       .  S
O414        H459   0.990       .  S
O416        H442   0.966       .  S
O417       Zr427   2.373       .  S
O418       Zr427   2.377   1_556  S
O418        H443   0.966       .  S
C419        C603   1.485       .  S
C420        C540   1.483   1_556  S
C421        C643   1.484       .  S
O422        H458   0.990       .  S
O423        C425   1.285       .  A
O424        C425   1.285   1_556  A
C425        C530   1.484       .  S
O426       Zr427   2.439       .  S
O426        H455   0.990       .  S
Zr427       O432   2.425       .  S
Zr427       O430   2.436       .  S
Zr427       O431   2.441       .  S
O428        C433   1.285   1_556  A
O429        H446   0.990       .  S
O429        H461   0.990       .  S
O430        H447   0.990       .  S
O431        H451   0.990       .  S
O431        H460   0.989       .  S
O432        C433   1.283       .  A
C433        C553   1.484       .  S
O434        H453   0.990       .  S
O434        H457   0.990       .  S
O435        H449   0.990       .  S
O435        H456   0.990       .  S
O436        C440   1.286       .  A
O437        C440   1.285       .  A
O438        H448   0.990       .  S
O439        H452   0.990       .  S
C440        C633   1.485       .  S
Zr463       O465   2.434       .  S
Zr463       O466   2.442       .  S
Zr463       O469   2.430       .  S
Zr463       O471   2.380       .  S
Zr463       O472   2.381   1_554  S
Zr463       O473   2.406       .  S
Zr463       O474   2.403       .  S
Zr463       O464   2.440       .  S
O464        H520   0.990       .  S
O464        H528   0.990       .  S
O465        C485   1.285       .  A
O466        C487   1.285       .  A
O467       Zr477   2.427       .  S
O467        C486   1.285       .  A
O468       Zr476   2.424       .  S
O468        C487   1.284       .  A
O469        C486   1.285   1_554  A
O470       Zr478   2.420       .  S
O470        C485   1.282   1_556  A
O471       Zr476   2.392       .  S
O471       Zr478   2.377   1_554  S
O472       Zr477   2.388       .  S
O472       Zr478   2.375       .  S
O472        H507   0.966       .  S
O473       Zr476   2.399       .  S
O473       Zr493   2.397       .  S
O473        H510   0.966       .  S
O474       Zr477   2.389   1_554  S
O474       Zr493   2.395       .  S
Zr475       O494   2.430       .  S
Zr475       O502   2.435       .  S
Zr475       O490   2.430       .  S
Zr475       O481   2.400       .  S
Zr475       O482   2.403       .  S
Zr475       O483   2.378   1_556  S
Zr475       O484   2.380       .  S
Zr475       O500   2.444       .  S
Zr476       O489   2.428       .  S
Zr476       O482   2.393   1_554  S
Zr476       O483   2.386       .  S
Zr476       O495   2.436       .  S
Zr476       O488   2.436       .  S
Zr477       O503   2.423       .  S
Zr477       O481   2.391       .  S
Zr477       O484   2.385       .  S
Zr477       O479   2.435       .  S
Zr477       O501   2.437       .  S
Zr478       O481   2.395       .  S
Zr478       O482   2.393       .  S
Zr478       O504   2.434       .  S
Zr478       O505   2.435       .  S
Zr478       O480   2.437       .  S
O479        H516   0.990       .  S
O480        H511   0.990       .  S
O480        H525   0.990       .  S
O482        H508   0.966       .  S
O483       Zr493   2.373       .  S
O484       Zr493   2.375   1_556  S
O484        H509   0.966       .  S
C485        C563   1.482       .  S
C486        C533   1.484   1_556  S
C487        C623   1.486       .  S
O488        H524   0.990       .  S
O489        C491   1.285       .  A
O490        C491   1.285   1_556  A
C491        C543   1.483       .  S
O492       Zr493   2.439       .  S
O492        H521   0.990       .  S
Zr493       O498   2.430       .  S
Zr493       O496   2.436       .  S
Zr493       O497   2.440       .  S
O494        C499   1.285       .  A
O495        H512   0.990       .  S
O495        H527   0.990       .  S
O496        H513   0.990       .  S
O497        H517   0.990       .  S
O497        H526   0.989       .  S
O498        C499   1.284   1_554  A
C499        C593   1.485       .  S
O500        H519   0.990       .  S
O500        H523   0.990       .  S
O501        H515   0.990       .  S
O501        H522   0.990       .  S
O502        C506   1.286       .  A
O503        C506   1.284       .  A
O504        H514   0.990       .  S
O505        H518   0.990       .  S
C506        C613   1.484       .  S
C529        C530   1.407   1_556  A
C529        C534   1.397       .  A
C529        H535   1.083       .  S
C530        C531   1.406       .  A
C531        C532   1.398       .  A
C531        H536   1.083       .  S
C532        C533   1.407       .  A
C532        H537   1.083       .  S
C533        C534   1.406   1_554  A
C534        H538   1.083       .  S
C539        C540   1.406       .  A
C539        C544   1.397   1_455  A
C539        H545   1.083       .  S
C540        C541   1.406   1_554  A
C541        C542   1.397   1_455  A
C541        H546   1.083       .  S
C542        C543   1.406   1_556  A
C542        H547   1.083       .  S
C543        C544   1.406       .  A
C544        H548   1.083       .  S
C549        C550   1.407   1_556  A
C549        C554   1.397       .  A
C549        H555   1.083       .  S
C550        C551   1.406       .  A
C551        C552   1.398       .  A
C551        H556   1.083       .  S
C552        C553   1.407       .  A
C552        H557   1.083       .  S
C553        C554   1.405   1_554  A
C554        H558   1.083       .  S
C559        C560   1.406       .  A
C559        C564   1.398       .  A
C559        H565   1.083       .  S
C560        C561   1.407   1_556  A
C561        C562   1.397       .  A
C561        H566   1.083       .  S
C562        C563   1.405       .  A
C562        H567   1.083       .  S
C563        C564   1.407   1_554  A
C564        H568   1.083       .  S
C569        C570   1.406   1_546  A
C569        C574   1.397   1_545  A
C569        H575   1.083       .  S
C570       C1339   1.406       .  A
C571        C572   1.397       .  A
C571       C1338   1.406       .  A
C571        H576   1.083       .  S
C572        C573   1.406       .  A
C572        H577   1.083       .  S
C573       C1342   1.406   1_554  A
C574       C1341   1.406   1_556  A
C574        H578   1.083   1_565  S
C579        C584   1.398       .  A
C579       C1348   1.407   1_545  A
C579        H585   1.083       .  S
C580        C581   1.406   1_554  A
C580       C1347   1.407       .  A
C581        C582   1.398       .  A
C581        H586   1.083       .  S
C582       C1351   1.406   1_556  A
C582        H587   1.083       .  S
C583        C584   1.406   1_565  A
C583       C1350   1.406   1_554  A
C584        H588   1.083       .  S
C589        C590   1.407       .  A
C589        C594   1.399       .  A
C589        H595   1.083       .  S
C590        C591   1.406   1_556  A
C591        C592   1.398       .  A
C591        H596   1.083       .  S
C592        C593   1.407   1_554  A
C592        H597   1.083       .  S
C593        C594   1.406       .  A
C594        H598   1.083       .  S
C599        C600   1.407       .  A
C599        C604   1.399       .  A
C599        H605   1.083       .  S
C600        C601   1.406   1_554  A
C601        C602   1.398       .  A
C601        H606   1.083       .  S
C602        C603   1.407   1_556  A
C602        H607   1.083       .  S
C603        C604   1.406       .  A
C604        H608   1.083       .  S
C609        C610   1.405       .  A
C609        C614   1.395       .  A
C609        H615   1.083       .  S
C610        C611   1.407       .  A
C611        C612   1.400       .  A
C611        H616   1.083       .  S
C612        C613   1.407       .  A
C612        H617   1.083       .  S
C613        C614   1.406       .  A
C614        H618   1.083       .  S
C619        C620   1.407       .  A
C619        C624   1.401       .  A
C619        H625   1.083       .  S
C620        C621   1.406       .  A
C621        C622   1.395       .  A
C621        H626   1.083       .  S
C622        C623   1.406       .  A
C622        H627   1.083       .  S
C623        C624   1.407       .  A
C624        H628   1.083       .  S
C629        C630   1.407       .  A
C629        C634   1.395       .  A
C629        H635   1.083       .  S
C630        C631   1.407       .  A
C631        C632   1.401       .  A
C631        H636   1.083       .  S
C632        C633   1.407       .  A
C632        H637   1.083       .  S
C633        C634   1.406       .  A
C634        H638   1.083       .  S
C639        C640   1.407       .  A
C639        C644   1.400       .  A
C639        H645   1.083       .  S
C640        C641   1.405       .  A
C641        C642   1.395       .  A
C641        H646   1.083       .  S
C642        C643   1.406       .  A
C642        H647   1.083       .  S
C643        C644   1.407       .  A
C644        H648   1.083       .  S
C649        C650   1.407       .  A
C649        C654   1.398       .  A
C649        H655   1.083       .  S
C650        C651   1.406       .  A
C651        C652   1.397       .  A
C651        H656   1.083       .  S
C652        C653   1.407       .  A
C652        H657   1.083       .  S
C653        C654   1.407       .  A
C654        H658   1.083       .  S
C659        C660   1.406       .  A
C659        C664   1.397   1_455  A
C659        H665   1.083       .  S
C660        C661   1.406       .  A
C661        C662   1.397   1_455  A
C661        H666   1.083       .  S
C662        C663   1.406       .  A
C662        H667   1.083       .  S
C663        C664   1.406       .  A
C664        H668   1.083       .  S
C669        C674   1.395       .  A
C669       C1438   1.406       .  A
C669        H675   1.083       .  S
C670        C671   1.407       .  A
C670       C1437   1.406   1_545  A
C671        C672   1.400       .  A
C671        H676   1.083       .  S
C672       C1441   1.406   1_545  A
C672        H677   1.083       .  S
C673        C674   1.406       .  A
C673       C1440   1.406       .  A
C674        H678   1.083       .  S
C679        C684   1.400       .  A
C679       C1448   1.407       .  A
C679        H685   1.083       .  S
C680        C681   1.406       .  A
C680       C1447   1.407       .  A
C681        C682   1.395       .  A
C681        H686   1.083       .  S
C682       C1451   1.406   1_545  A
C682        H687   1.083       .  S
C683        C684   1.407       .  A
C683       C1450   1.406       .  A
C684        H688   1.083       .  S
C689        C690   1.406       .  A
C689        C694   1.398       .  A
C689        H695   1.083       .  S
C690        C691   1.407       .  A
C691        C692   1.397       .  A
C691        H696   1.083       .  S
C692        C693   1.406       .  A
C692        H697   1.083       .  S
C693        C694   1.407       .  A
C694        H698   1.083       .  S
C699        C700   1.406       .  A
C699        C704   1.398       .  A
C699        H705   1.083       .  S
C700        C701   1.407       .  A
C701        C702   1.397       .  A
C701        H706   1.083       .  S
C702        C703   1.405       .  A
C702        H707   1.083       .  S
C703        C704   1.407       .  A
C704        H708   1.083       .  S
C709        C710   1.408       .  A
C709        C714   1.402   1_545  A
C709        H715   1.083       .  S
C710       C1479   1.406   1_445  A
C711        C712   1.395       .  A
C711       C1478   1.406   1_655  A
C711        H716   1.083       .  S
C712        C713   1.406   1_655  A
C712        H717   1.083       .  S
C713       C1482   1.407       .  A
C714       C1481   1.407       .  A
C714        H718   1.083   1_565  S
C719        C724   1.395       .  A
C719       C1488   1.406   1_445  A
C719        H725   1.083       .  S
C720        C721   1.407       .  A
C720       C1487   1.406   1_655  A
C721        C722   1.401       .  A
C721        H726   1.083       .  S
C722       C1491   1.407       .  A
C722        H727   1.083       .  S
C723        C724   1.406   1_655  A
C723       C1490   1.407   1_545  A
C724        H728   1.083       .  S
C729        C734   1.397       .  A
C729       C1498   1.406       .  A
C729        H735   1.083       .  S
C730        C731   1.407       .  A
C730       C1497   1.406       .  A
C731        C732   1.397       .  A
C731        H736   1.083       .  S
C732       C1501   1.407       .  A
C732        H737   1.083       .  S
C733        C734   1.406       .  A
C733       C1500   1.407       .  A
C734        H738   1.083       .  S
C739        C740   1.406       .  A
C739        C744   1.398       .  A
C739        H745   1.083       .  S
C740       C1509   1.406       .  A
C741        C742   1.397       .  A
C741       C1508   1.406       .  A
C741        H746   1.083       .  S
C742        C743   1.406       .  A
C742        H747   1.083       .  S
C743       C1512   1.407       .  A
C744       C1511   1.407       .  A
C744        H748   1.083   1_545  S
C749        C750   1.406       .  A
C749        C754   1.398       .  A
C749        H755   1.083       .  S
C750        C751   1.407       .  A
C751        C752   1.399       .  A
C751        H756   1.083       .  S
C752        C753   1.406       .  A
C752        H757   1.083       .  S
C753        C754   1.407       .  A
C754        H758   1.083       .  S
C759        C760   1.407       .  A
C759        C764   1.399       .  A
C759        H765   1.083       .  S
C760        C761   1.406       .  A
C761        C762   1.398       .  A
C761        H766   1.083       .  S
C762        C763   1.407       .  A
C762        H767   1.083       .  S
C763        C764   1.406       .  A
C764        H768   1.083       .  S
Zr769       O771   2.434       .  S
Zr769       O772   2.443       .  S
Zr769       O775   2.430       .  S
Zr769       O777   2.379   1_655  S
Zr769       O778   2.382       .  S
O770        H826   0.990       .  S
O770        H834   0.990       .  S
O771        C791   1.285       .  A
O772        C793   1.286       .  A
O773       Zr783   2.427       .  S
O774       Zr782   2.423       .  S
O774        C793   1.283   1_455  A
O775        C792   1.285       .  A
O776       Zr784   2.426   1_655  S
O776        C791   1.283       .  A
O777       Zr782   2.393       .  S
O777       Zr784   2.377       .  S
O778       Zr784   2.374   1_655  S
O778        H813   0.966       .  S
O779       Zr799   2.396       .  S
O779        H816   0.966       .  S
O780       Zr783   2.389       .  S
O780       Zr799   2.394       .  S
Zr781       O800   2.432       .  S
Zr781       O808   2.436       .  S
Zr781       O796   2.430       .  S
Zr781       O789   2.377       .  S
Zr781       O790   2.380   1_455  S
Zr782       O795   2.429   1_565  S
Zr782       O788   2.392       .  S
Zr782       O794   2.436       .  S
Zr783       O809   2.427       .  S
Zr783       O790   2.385       .  S
Zr783       O785   2.435       .  S
Zr784       O787   2.396       .  S
Zr784       O788   2.395       .  S
Zr784       O810   2.434   1_455  S
Zr784       O811   2.435       .  S
Zr784       O786   2.437       .  S
O785        H822   0.990       .  S
O786        H817   0.990       .  S
O786        H831   0.990       .  S
O788        H814   0.966       .  S
O789       Zr799   2.374   1_455  S
O790       Zr799   2.377       .  S
O790        H815   0.966       .  S
C791       C1518   1.485       .  S
C792       C1498   1.484   1_565  S
C793       C1488   1.485       .  S
O794        H830   0.990       .  S
O796        C797   1.285       .  A
C797       C1508   1.484       .  S
O798       Zr799   2.439       .  S
O798        H827   0.990       .  S
Zr799       O804   2.427   1_655  S
Zr799       O802   2.436   1_655  S
Zr799       O803   2.441       .  S
O800        C805   1.285       .  A
O801        H818   0.990       .  S
O801        H833   0.990       .  S
O802        H819   0.990       .  S
O803        H823   0.990       .  S
O803        H832   0.989       .  S
O804        C805   1.284       .  A
C805       C1528   1.484       .  S
O806        H825   0.990       .  S
O806        H829   0.990       .  S
O807        H821   0.990       .  S
O807        H828   0.990       .  S
O808        C812   1.286       .  A
O809        C812   1.285   1_655  A
O810        H820   0.990       .  S
O811        H824   0.990       .  S
C812       C1478   1.486       .  S
Zr835       O837   2.433       .  S
Zr835       O838   2.440       .  S
Zr835       O841   2.429       .  S
Zr835       O843   2.380       .  S
Zr835       O844   2.381       .  S
O836        H892   0.990       .  S
O836        H900   0.990       .  S
O837        C857   1.284       .  A
O838        C859   1.285       .  A
O839       Zr849   2.427       .  S
O840       Zr848   2.422   1_565  S
O840        C859   1.283       .  A
O841        C858   1.285       .  A
O842       Zr850   2.422       .  S
O842        C857   1.282       .  A
O843       Zr848   2.392   1_565  S
O843       Zr850   2.376       .  S
O844       Zr850   2.374       .  S
O844        H879   0.966       .  S
O845       Zr865   2.396       .  S
O845        H882   0.966       .  S
O846       Zr849   2.389       .  S
O846       Zr865   2.393       .  S
Zr847       O866   2.429       .  S
Zr847       O874   2.434       .  S
Zr847       O862   2.431       .  S
Zr847       O855   2.378       .  S
Zr847       O856   2.380       .  S
Zr848       O861   2.429       .  S
Zr848       O854   2.392   1_545  S
Zr848       O860   2.435   1_545  S
Zr849       O875   2.426       .  S
Zr849       O856   2.385       .  S
Zr849       O851   2.435       .  S
Zr850       O853   2.396       .  S
Zr850       O854   2.393       .  S
Zr850       O876   2.434       .  S
Zr850       O877   2.435       .  S
Zr850       O852   2.437       .  S
O851        H888   0.990       .  S
O852        H883   0.990       .  S
O852        H897   0.990       .  S
O854        H880   0.966       .  S
O855       Zr865   2.374       .  S
O856       Zr865   2.376       .  S
O856        H881   0.966       .  S
C857       C1458   1.484       .  S
C858       C1511   1.484   1_565  S
C859       C1451   1.484       .  S
O860        H896   0.990       .  S
O862        C863   1.285       .  A
C863       C1501   1.484       .  S
O864       Zr865   2.439       .  S
O864        H893   0.990       .  S
Zr865       O870   2.424       .  S
Zr865       O868   2.436       .  S
Zr865       O869   2.441       .  S
O866        C871   1.285       .  A
O867        H884   0.990       .  S
O867        H899   0.990       .  S
O868        H885   0.990       .  S
O869        H889   0.990       .  S
O869        H898   0.989       .  S
O870        C871   1.283       .  A
C871       C1468   1.483       .  S
O872        H891   0.990       .  S
O872        H895   0.990       .  S
O873        H887   0.990       .  S
O873        H894   0.990       .  S
O874        C878   1.286       .  A
O875        C878   1.285       .  A
O876        H886   0.990       .  S
O877        H890   0.990       .  S
C878       C1438   1.485       .  S
Zr901       O903   2.433       .  S
Zr901       O904   2.438       .  S
Zr901       O907   2.427       .  S
Zr901       O909   2.380       .  S
Zr901       O910   2.381       .  S
Zr901       O911   2.405       .  S
Zr901       O912   2.402       .  S
Zr901       O902   2.440       .  S
O902        H958   0.990       .  S
O902        H966   0.990       .  S
O903        C923   1.284       .  A
O904        C925   1.285       .  A
O905       Zr915   2.427       .  S
O905        C924   1.285       .  A
O906       Zr914   2.424       .  S
O906        C925   1.284       .  A
O907        C924   1.285       .  A
O908       Zr916   2.426       .  S
O908        C923   1.283       .  A
O909       Zr914   2.392       .  S
O909       Zr916   2.375       .  S
O910       Zr915   2.389       .  S
O910       Zr916   2.374       .  S
O910        H945   0.966       .  S
O911       Zr914   2.398       .  S
O911       Zr931   2.395       .  S
O911        H948   0.966       .  S
O912       Zr915   2.388       .  S
O912       Zr931   2.393       .  S
Zr913       O932   2.431       .  S
Zr913       O940   2.438       .  S
Zr913       O928   2.431       .  S
Zr913       O919   2.400       .  S
Zr913       O920   2.404       .  S
Zr913       O921   2.378       .  S
Zr913       O922   2.380       .  S
Zr913       O938   2.445       .  S
Zr914       O927   2.430       .  S
Zr914       O920   2.393       .  S
Zr914       O921   2.385       .  S
Zr914       O933   2.436       .  S
Zr914       O926   2.436       .  S
Zr915       O941   2.425       .  S
Zr915       O919   2.391       .  S
Zr915       O922   2.384       .  S
Zr915       O917   2.435       .  S
Zr915       O939   2.437       .  S
Zr916       O919   2.397       .  S
Zr916       O920   2.394       .  S
Zr916       O942   2.434       .  S
Zr916       O943   2.435       .  S
Zr916       O918   2.437       .  S
O917        H954   0.990       .  S
O918        H949   0.990       .  S
O918        H963   0.990       .  S
O920        H946   0.966       .  S
O921       Zr931   2.374       .  S
O922       Zr931   2.378       .  S
O922        H947   0.966       .  S
C923       C1531   1.485       .  S
C924       C1428   1.483       .  S
C925       C1408   1.483       .  S
O926        H962   0.990       .  S
O927        C929   1.285       .  A
O928        C929   1.285       .  A
C929       C1421   1.485       .  S
O930       Zr931   2.439       .  S
O930        H959   0.990       .  S
Zr931       O936   2.425       .  S
Zr931       O934   2.436       .  S
Zr931       O935   2.441       .  S
O932        C937   1.285       .  A
O933        H950   0.990       .  S
O933        H965   0.990       .  S
O934        H951   0.990       .  S
O935        H955   0.990       .  S
O935        H964   0.989       .  S
O936        C937   1.283       .  A
C937       C1461   1.484       .  S
O938        H957   0.990       .  S
O938        H961   0.990       .  S
O939        H953   0.990       .  S
O939        H960   0.990       .  S
O940        C944   1.286       .  A
O941        C944   1.285       .  A
O942        H952   0.990       .  S
O943        H956   0.990       .  S
C944       C1398   1.486       .  S
Zr967       O969   2.433       .  S
Zr967       O970   2.443       .  S
Zr967       O973   2.430       .  S
Zr967       O975   2.380       .  S
Zr967       O976   2.381       .  S
Zr967       O977   2.406       .  S
Zr967       O978   2.403       .  S
Zr967       O968   2.440       .  S
O968       H1024   0.990       .  S
O968       H1032   0.990       .  S
O969        C989   1.285       .  A
O970        C991   1.286       .  A
O971       Zr981   2.428       .  S
O971        C990   1.285       .  A
O972       Zr980   2.424       .  S
O972        C991   1.284       .  A
O973        C990   1.285       .  A
O974       Zr982   2.420       .  S
O974        C989   1.282       .  A
O975       Zr980   2.392       .  S
O975       Zr982   2.378       .  S
O976       Zr981   2.388       .  S
O976       Zr982   2.375       .  S
O976       H1011   0.966       .  S
O977       Zr980   2.398       .  S
O977       Zr997   2.396       .  S
O977       H1014   0.966       .  S
O978       Zr981   2.389       .  S
O978       Zr997   2.395       .  S
Zr979       O998   2.430       .  S
Zr979      O1006   2.433       .  S
Zr979       O994   2.429       .  S
Zr979       O985   2.399       .  S
Zr979       O986   2.402       .  S
Zr979       O987   2.378       .  S
Zr979       O988   2.379       .  S
Zr979      O1004   2.445       .  S
Zr980       O993   2.428       .  S
Zr980       O986   2.393       .  S
Zr980       O987   2.386       .  S
Zr980       O999   2.436       .  S
Zr980       O992   2.436       .  S
Zr981      O1007   2.425       .  S
Zr981       O985   2.392       .  S
Zr981       O988   2.385       .  S
Zr981       O983   2.435       .  S
Zr981      O1005   2.437       .  S
Zr982       O985   2.396       .  S
Zr982       O986   2.392       .  S
Zr982      O1008   2.434       .  S
Zr982      O1009   2.435       .  S
Zr982       O984   2.437       .  S
O983       H1020   0.990       .  S
O984       H1015   0.990       .  S
O984       H1029   0.990       .  S
O986       H1012   0.966       .  S
O987       Zr997   2.372       .  S
O988       Zr997   2.376       .  S
O988       H1013   0.966       .  S
C989       C1471   1.482       .  S
C990       C1418   1.485       .  S
C991       C1388   1.486       .  S
O992       H1028   0.990       .  S
O993        C995   1.285       .  A
O994        C995   1.285       .  A
C995       C1431   1.483       .  S
O996       Zr997   2.439       .  S
O996       H1025   0.990       .  S
Zr997      O1002   2.430       .  S
Zr997      O1000   2.436       .  S
Zr997      O1001   2.441       .  S
O998       C1003   1.285       .  A
O999       H1016   0.990       .  S
O999       H1031   0.990       .  S
O1000      H1017   0.990       .  S
O1001      H1021   0.990       .  S
O1001      H1030   0.989       .  S
O1002      C1003   1.284       .  A
C1003      C1521   1.485       .  S
O1004      H1023   0.990       .  S
O1004      H1027   0.990       .  S
O1005      H1019   0.990       .  S
O1005      H1026   0.990       .  S
O1006      C1010   1.285       .  A
O1007      C1010   1.285       .  A
O1008      H1018   0.990       .  S
O1009      H1022   0.990       .  S
C1010      C1378   1.483       .  S
Zr1033     O1035   2.434       .  S
Zr1033     O1036   2.442       .  S
Zr1033     O1039   2.428       .  S
Zr1033     O1041   2.380   1_655  S
Zr1033     O1042   2.381   1_554  S
O1034      H1090   0.990       .  S
O1034      H1098   0.990       .  S
O1035      C1055   1.285   1_554  A
O1036      C1057   1.285       .  A
O1037     Zr1047   2.427       .  S
O1038     Zr1046   2.423       .  S
O1038      C1057   1.284   1_455  A
O1039      C1056   1.285   1_554  A
O1040     Zr1048   2.426   1_655  S
O1040      C1055   1.283       .  A
O1041     Zr1046   2.393       .  S
O1041     Zr1048   2.377   1_554  S
O1042     Zr1048   2.374   1_655  S
O1042      H1077   0.966       .  S
O1043     Zr1063   2.396       .  S
O1043      H1080   0.966       .  S
O1044     Zr1047   2.389   1_554  S
O1044     Zr1063   2.394       .  S
Zr1045     O1064   2.432       .  S
Zr1045     O1072   2.439       .  S
Zr1045     O1060   2.432       .  S
Zr1045     O1053   2.378   1_556  S
Zr1045     O1054   2.380   1_455  S
Zr1046     O1059   2.430       .  S
Zr1046     O1052   2.393   1_554  S
Zr1046     O1058   2.436       .  S
Zr1047     O1073   2.424       .  S
Zr1047     O1054   2.385       .  S
Zr1047     O1049   2.435       .  S
Zr1048     O1051   2.397       .  S
Zr1048     O1052   2.395       .  S
Zr1048     O1074   2.434   1_455  S
Zr1048     O1075   2.435       .  S
Zr1048     O1050   2.437       .  S
O1049      H1086   0.990       .  S
O1050      H1081   0.990       .  S
O1050      H1095   0.990       .  S
O1052      H1078   0.966       .  S
O1053     Zr1063   2.374   1_455  S
O1054     Zr1063   2.376   1_556  S
O1054      H1079   0.966       .  S
C1055      C1358   1.485       .  S
C1056      C1338   1.483   1_556  S
C1057      C1491   1.485       .  S
O1058      H1094   0.990       .  S
O1060      C1061   1.285   1_556  A
C1061      C1348   1.484       .  S
O1062     Zr1063   2.439       .  S
O1062      H1091   0.990       .  S
Zr1063     O1068   2.427   1_655  S
Zr1063     O1066   2.436   1_655  S
Zr1063     O1067   2.440       .  S
O1064      C1069   1.285   1_556  A
O1065      H1082   0.990       .  S
O1065      H1097   0.990       .  S
O1066      H1083   0.990       .  S
O1067      H1087   0.990       .  S
O1067      H1096   0.989       .  S
O1068      C1069   1.284       .  A
C1069      C1368   1.484       .  S
O1070      H1089   0.990       .  S
O1070      H1093   0.990       .  S
O1071      H1085   0.990       .  S
O1071      H1092   0.990       .  S
O1072      C1076   1.286       .  A
O1073      C1076   1.284   1_655  A
O1074      H1084   0.990       .  S
O1075      H1088   0.990       .  S
C1076      C1481   1.485       .  S
Zr1099     O1101   2.432       .  S
Zr1099     O1102   2.437       .  S
Zr1099     O1105   2.429       .  S
Zr1099     O1107   2.379       .  S
Zr1099     O1108   2.381   1_554  S
O1100      H1156   0.990       .  S
O1100      H1164   0.990       .  S
O1101      C1121   1.284       .  A
O1102      C1123   1.285       .  A
O1103     Zr1113   2.429   1_565  S
O1104     Zr1112   2.425       .  S
O1104      C1123   1.284       .  A
O1105      C1122   1.285   1_554  A
O1106     Zr1114   2.422       .  S
O1106      C1121   1.282   1_556  A
O1107     Zr1112   2.392       .  S
O1107     Zr1114   2.376   1_554  S
O1108     Zr1114   2.375       .  S
O1108      H1143   0.966       .  S
O1109     Zr1129   2.395       .  S
O1109      H1146   0.966       .  S
O1110     Zr1113   2.389   1_564  S
O1110     Zr1129   2.393       .  S
Zr1111     O1130   2.429       .  S
Zr1111     O1138   2.434       .  S
Zr1111     O1126   2.429       .  S
Zr1111     O1119   2.378   1_556  S
Zr1111     O1120   2.380       .  S
Zr1112     O1125   2.430       .  S
Zr1112     O1118   2.393   1_554  S
Zr1112     O1124   2.435       .  S
Zr1113     O1139   2.426   1_545  S
Zr1113     O1120   2.385   1_545  S
Zr1113     O1115   2.435   1_545  S
Zr1114     O1117   2.396       .  S
Zr1114     O1118   2.393       .  S
Zr1114     O1140   2.434       .  S
Zr1114     O1141   2.435       .  S
Zr1114     O1116   2.437       .  S
O1115      H1152   0.990       .  S
O1116      H1147   0.990       .  S
O1116      H1161   0.990       .  S
O1118      H1144   0.966       .  S
O1119     Zr1129   2.373       .  S
O1120     Zr1129   2.375   1_556  S
O1120      H1145   0.966       .  S
C1121      C1318   1.483       .  S
C1122      C1351   1.483   1_556  S
C1123      C1448   1.484       .  S
O1124      H1160   0.990       .  S
O1126      C1127   1.285   1_556  A
C1127      C1341   1.483       .  S
O1128     Zr1129   2.439       .  S
O1128      H1157   0.990       .  S
Zr1129     O1134   2.425       .  S
Zr1129     O1132   2.436       .  S
Zr1129     O1133   2.441       .  S
O1130      C1135   1.285       .  A
O1131      H1148   0.990       .  S
O1131      H1163   0.990       .  S
O1132      H1149   0.990       .  S
O1133      H1153   0.990       .  S
O1133      H1162   0.989       .  S
O1134      C1135   1.283   1_554  A
C1135      C1328   1.482       .  S
O1136      H1155   0.990       .  S
O1136      H1159   0.990       .  S
O1137      H1151   0.990       .  S
O1137      H1158   0.990       .  S
O1138      C1142   1.286       .  A
O1139      C1142   1.285       .  A
O1140      H1150   0.990       .  S
O1141      H1154   0.990       .  S
C1142      C1441   1.483       .  S
Zr1165     O1167   2.433       .  S
Zr1165     O1168   2.439       .  S
Zr1165     O1171   2.427       .  S
Zr1165     O1173   2.380       .  S
Zr1165     O1174   2.381   1_554  S
Zr1165     O1175   2.405       .  S
Zr1165     O1176   2.402       .  S
Zr1165     O1166   2.440       .  S
O1166      H1222   0.990       .  S
O1166      H1230   0.990       .  S
O1167      C1187   1.285       .  A
O1168      C1189   1.285       .  A
O1169     Zr1179   2.427       .  S
O1169      C1188   1.285       .  A
O1170     Zr1178   2.423       .  S
O1170      C1189   1.283       .  A
O1171      C1188   1.285   1_554  A
O1172     Zr1180   2.426       .  S
O1172      C1187   1.283   1_556  A
O1173     Zr1178   2.392       .  S
O1173     Zr1180   2.376   1_554  S
O1174     Zr1179   2.390       .  S
O1174     Zr1180   2.374       .  S
O1174      H1209   0.966       .  S
O1175     Zr1178   2.398       .  S
O1175     Zr1195   2.394       .  S
O1175      H1212   0.966       .  S
O1176     Zr1179   2.388   1_554  S
O1176     Zr1195   2.393       .  S
Zr1177     O1196   2.430       .  S
Zr1177     O1204   2.437       .  S
Zr1177     O1192   2.431       .  S
Zr1177     O1183   2.400       .  S
Zr1177     O1184   2.403       .  S
Zr1177     O1185   2.378   1_556  S
Zr1177     O1186   2.380       .  S
Zr1177     O1202   2.445       .  S
Zr1178     O1191   2.430       .  S
Zr1178     O1184   2.393   1_554  S
Zr1178     O1185   2.384       .  S
Zr1178     O1197   2.436       .  S
Zr1178     O1190   2.436       .  S
Zr1179     O1205   2.427       .  S
Zr1179     O1183   2.391       .  S
Zr1179     O1186   2.384       .  S
Zr1179     O1181   2.435       .  S
Zr1179     O1203   2.437       .  S
Zr1180     O1183   2.398       .  S
Zr1180     O1184   2.394       .  S
Zr1180     O1206   2.434       .  S
Zr1180     O1207   2.435       .  S
Zr1180     O1182   2.437       .  S
O1181      H1218   0.990       .  S
O1182      H1213   0.990       .  S
O1182      H1227   0.990       .  S
O1184      H1210   0.966       .  S
O1185     Zr1195   2.373       .  S
O1186     Zr1195   2.377   1_556  S
O1186      H1211   0.966       .  S
C1187      C1371   1.485       .  S
C1188      C1308   1.483   1_556  S
C1189      C1411   1.484       .  S
O1190      H1226   0.990       .  S
O1191      C1193   1.285       .  A
O1192      C1193   1.285   1_556  A
C1193      C1298   1.484       .  S
O1194     Zr1195   2.439       .  S
O1194      H1223   0.990       .  S
Zr1195     O1200   2.425       .  S
Zr1195     O1198   2.436       .  S
Zr1195     O1199   2.441       .  S
O1196      C1201   1.285   1_556  A
O1197      H1214   0.990       .  S
O1197      H1229   0.990       .  S
O1198      H1215   0.990       .  S
O1199      H1219   0.990       .  S
O1199      H1228   0.989       .  S
O1200      C1201   1.283       .  A
C1201      C1321   1.484       .  S
O1202      H1221   0.990       .  S
O1202      H1225   0.990       .  S
O1203      H1217   0.990       .  S
O1203      H1224   0.990       .  S
O1204      C1208   1.286       .  A
O1205      C1208   1.285       .  A
O1206      H1216   0.990       .  S
O1207      H1220   0.990       .  S
C1208      C1401   1.485       .  S
Zr1231     O1233   2.434       .  S
Zr1231     O1234   2.442       .  S
Zr1231     O1237   2.430       .  S
Zr1231     O1239   2.380       .  S
Zr1231     O1240   2.381   1_554  S
Zr1231     O1241   2.406       .  S
Zr1231     O1242   2.403       .  S
Zr1231     O1232   2.440       .  S
O1232      H1288   0.990       .  S
O1232      H1296   0.990       .  S
O1233      C1253   1.285       .  A
O1234      C1255   1.285       .  A
O1235     Zr1245   2.427       .  S
O1235      C1254   1.285       .  A
O1236     Zr1244   2.424       .  S
O1236      C1255   1.284       .  A
O1237      C1254   1.285   1_554  A
O1238     Zr1246   2.420       .  S
O1238      C1253   1.282   1_556  A
O1239     Zr1244   2.392       .  S
O1239     Zr1246   2.377   1_554  S
O1240     Zr1245   2.388       .  S
O1240     Zr1246   2.375       .  S
O1240      H1275   0.966       .  S
O1241     Zr1244   2.399       .  S
O1241     Zr1261   2.397       .  S
O1241      H1278   0.966       .  S
O1242     Zr1245   2.389   1_554  S
O1242     Zr1261   2.395       .  S
Zr1243     O1262   2.430       .  S
Zr1243     O1270   2.435       .  S
Zr1243     O1258   2.430       .  S
Zr1243     O1249   2.400       .  S
Zr1243     O1250   2.403       .  S
Zr1243     O1251   2.378   1_556  S
Zr1243     O1252   2.380       .  S
Zr1243     O1268   2.444       .  S
Zr1244     O1257   2.428       .  S
Zr1244     O1250   2.393   1_554  S
Zr1244     O1251   2.386       .  S
Zr1244     O1263   2.436       .  S
Zr1244     O1256   2.436       .  S
Zr1245     O1271   2.423       .  S
Zr1245     O1249   2.391       .  S
Zr1245     O1252   2.385       .  S
Zr1245     O1247   2.435       .  S
Zr1245     O1269   2.437       .  S
Zr1246     O1249   2.395       .  S
Zr1246     O1250   2.393       .  S
Zr1246     O1272   2.434       .  S
Zr1246     O1273   2.435       .  S
Zr1246     O1248   2.437       .  S
O1247      H1284   0.990       .  S
O1248      H1279   0.990       .  S
O1248      H1293   0.990       .  S
O1250      H1276   0.966       .  S
O1251     Zr1261   2.373       .  S
O1252     Zr1261   2.375   1_556  S
O1252      H1277   0.966       .  S
C1253      C1331   1.482       .  S
C1254      C1301   1.484   1_556  S
C1255      C1391   1.486       .  S
O1256      H1292   0.990       .  S
O1257      C1259   1.285       .  A
O1258      C1259   1.285   1_556  A
C1259      C1311   1.483       .  S
O1260     Zr1261   2.439       .  S
O1260      H1289   0.990       .  S
Zr1261     O1266   2.430       .  S
Zr1261     O1264   2.436       .  S
Zr1261     O1265   2.440       .  S
O1262      C1267   1.285       .  A
O1263      H1280   0.990       .  S
O1263      H1295   0.990       .  S
O1264      H1281   0.990       .  S
O1265      H1285   0.990       .  S
O1265      H1294   0.989       .  S
O1266      C1267   1.284   1_554  A
C1267      C1361   1.485       .  S
O1268      H1287   0.990       .  S
O1268      H1291   0.990       .  S
O1269      H1283   0.990       .  S
O1269      H1290   0.990       .  S
O1270      C1274   1.286       .  A
O1271      C1274   1.284       .  A
O1272      H1282   0.990       .  S
O1273      H1286   0.990       .  S
C1274      C1381   1.484       .  S
C1297      C1298   1.407   1_556  A
C1297      C1302   1.397       .  A
C1297      H1303   1.083       .  S
C1298      C1299   1.406       .  A
C1299      C1300   1.398       .  A
C1299      H1304   1.083       .  S
C1300      C1301   1.407       .  A
C1300      H1305   1.083       .  S
C1301      C1302   1.406   1_554  A
C1302      H1306   1.083       .  S
C1307      C1308   1.406       .  A
C1307      C1312   1.397   1_455  A
C1307      H1313   1.083       .  S
C1308      C1309   1.406   1_554  A
C1309      C1310   1.397   1_455  A
C1309      H1314   1.083       .  S
C1310      C1311   1.406   1_556  A
C1310      H1315   1.083       .  S
C1311      C1312   1.406       .  A
C1312      H1316   1.083       .  S
C1317      C1318   1.407   1_556  A
C1317      C1322   1.397       .  A
C1317      H1323   1.083       .  S
C1318      C1319   1.406       .  A
C1319      C1320   1.398       .  A
C1319      H1324   1.083       .  S
C1320      C1321   1.407       .  A
C1320      H1325   1.083       .  S
C1321      C1322   1.405   1_554  A
C1322      H1326   1.083       .  S
C1327      C1328   1.406       .  A
C1327      C1332   1.398       .  A
C1327      H1333   1.083       .  S
C1328      C1329   1.407   1_556  A
C1329      C1330   1.397       .  A
C1329      H1334   1.083       .  S
C1330      C1331   1.405       .  A
C1330      H1335   1.083       .  S
C1331      C1332   1.407   1_554  A
C1332      H1336   1.083       .  S
C1337      C1338   1.406   1_556  A
C1337      C1342   1.397       .  A
C1337      H1343   1.083       .  S
C1339      C1340   1.397       .  A
C1339      H1344   1.083       .  S
C1340      C1341   1.406       .  A
C1340      H1345   1.083       .  S
C1342      H1346   1.083       .  S
C1347      C1352   1.398       .  A
C1347      H1353   1.083       .  S
C1348      C1349   1.406   1_554  A
C1349      C1350   1.398       .  A
C1349      H1354   1.083       .  S
C1350      H1355   1.083       .  S
C1351      C1352   1.406       .  A
C1352      H1356   1.083       .  S
C1357      C1358   1.407       .  A
C1357      C1362   1.399       .  A
C1357      H1363   1.083       .  S
C1358      C1359   1.406   1_556  A
C1359      C1360   1.398       .  A
C1359      H1364   1.083       .  S
C1360      C1361   1.407   1_554  A
C1360      H1365   1.083       .  S
C1361      C1362   1.406       .  A
C1362      H1366   1.083       .  S
C1367      C1368   1.407       .  A
C1367      C1372   1.399       .  A
C1367      H1373   1.083       .  S
C1368      C1369   1.406   1_554  A
C1369      C1370   1.398       .  A
C1369      H1374   1.083       .  S
C1370      C1371   1.407   1_556  A
C1370      H1375   1.083       .  S
C1371      C1372   1.406       .  A
C1372      H1376   1.083       .  S
C1377      C1378   1.405       .  A
C1377      C1382   1.395       .  A
C1377      H1383   1.083       .  S
C1378      C1379   1.407       .  A
C1379      C1380   1.400       .  A
C1379      H1384   1.083       .  S
C1380      C1381   1.407       .  A
C1380      H1385   1.083       .  S
C1381      C1382   1.406       .  A
C1382      H1386   1.083       .  S
C1387      C1388   1.407       .  A
C1387      C1392   1.401       .  A
C1387      H1393   1.083       .  S
C1388      C1389   1.406       .  A
C1389      C1390   1.395       .  A
C1389      H1394   1.083       .  S
C1390      C1391   1.406       .  A
C1390      H1395   1.083       .  S
C1391      C1392   1.407       .  A
C1392      H1396   1.083       .  S
C1397      C1398   1.407       .  A
C1397      C1402   1.395       .  A
C1397      H1403   1.083       .  S
C1398      C1399   1.407       .  A
C1399      C1400   1.401       .  A
C1399      H1404   1.083       .  S
C1400      C1401   1.407       .  A
C1400      H1405   1.083       .  S
C1401      C1402   1.406       .  A
C1402      H1406   1.083       .  S
C1407      C1408   1.407       .  A
C1407      C1412   1.400       .  A
C1407      H1413   1.083       .  S
C1408      C1409   1.405       .  A
C1409      C1410   1.395       .  A
C1409      H1414   1.083       .  S
C1410      C1411   1.406       .  A
C1410      H1415   1.083       .  S
C1411      C1412   1.407       .  A
C1412      H1416   1.083       .  S
C1417      C1418   1.407       .  A
C1417      C1422   1.398       .  A
C1417      H1423   1.083       .  S
C1418      C1419   1.406       .  A
C1419      C1420   1.397       .  A
C1419      H1424   1.083       .  S
C1420      C1421   1.407       .  A
C1420      H1425   1.083       .  S
C1421      C1422   1.407       .  A
C1422      H1426   1.083       .  S
C1427      C1428   1.406       .  A
C1427      C1432   1.397   1_455  A
C1427      H1433   1.083       .  S
C1428      C1429   1.406       .  A
C1429      C1430   1.397   1_455  A
C1429      H1434   1.083       .  S
C1430      C1431   1.406       .  A
C1430      H1435   1.083       .  S
C1431      C1432   1.406       .  A
C1432      H1436   1.083       .  S
C1437      C1442   1.395       .  A
C1437      H1443   1.083       .  S
C1438      C1439   1.407       .  A
C1439      C1440   1.400       .  A
C1439      H1444   1.083       .  S
C1440      H1445   1.083       .  S
C1441      C1442   1.406       .  A
C1442      H1446   1.083       .  S
C1447      C1452   1.400   1_545  A
C1447      H1453   1.083       .  S
C1448      C1449   1.406       .  A
C1449      C1450   1.395       .  A
C1449      H1454   1.083       .  S
C1450      H1455   1.083       .  S
C1451      C1452   1.407       .  A
C1452      H1456   1.083       .  S
C1457      C1458   1.406       .  A
C1457      C1462   1.398       .  A
C1457      H1463   1.083       .  S
C1458      C1459   1.407       .  A
C1459      C1460   1.397       .  A
C1459      H1464   1.083       .  S
C1460      C1461   1.406       .  A
C1460      H1465   1.083       .  S
C1461      C1462   1.407       .  A
C1462      H1466   1.083       .  S
C1467      C1468   1.406       .  A
C1467      C1472   1.398       .  A
C1467      H1473   1.083       .  S
C1468      C1469   1.407       .  A
C1469      C1470   1.397       .  A
C1469      H1474   1.083       .  S
C1470      C1471   1.405       .  A
C1470      H1475   1.083       .  S
C1471      C1472   1.407       .  A
C1472      H1476   1.083       .  S
C1477      C1478   1.408       .  A
C1477      C1482   1.402       .  A
C1477      H1483   1.083       .  S
C1479      C1480   1.395       .  A
C1479      H1484   1.083       .  S
C1480      C1481   1.406   1_655  A
C1480      H1485   1.083       .  S
C1482      H1486   1.083       .  S
C1487      C1492   1.395       .  A
C1487      H1493   1.083       .  S
C1488      C1489   1.407       .  A
C1489      C1490   1.401       .  A
C1489      H1494   1.083       .  S
C1490      H1495   1.083       .  S
C1491      C1492   1.406   1_655  A
C1492      H1496   1.083       .  S
C1497      C1502   1.397       .  A
C1497      H1503   1.083       .  S
C1498      C1499   1.407       .  A
C1499      C1500   1.397       .  A
C1499      H1504   1.083       .  S
C1500      H1505   1.083       .  S
C1501      C1502   1.406       .  A
C1502      H1506   1.083       .  S
C1507      C1508   1.406       .  A
C1507      C1512   1.398       .  A
C1507      H1513   1.083       .  S
C1509      C1510   1.397       .  A
C1509      H1514   1.083       .  S
C1510      C1511   1.406       .  A
C1510      H1515   1.083       .  S
C1512      H1516   1.083       .  S
C1517      C1518   1.406       .  A
C1517      C1522   1.398       .  A
C1517      H1523   1.083       .  S
C1518      C1519   1.407       .  A
C1519      C1520   1.399       .  A
C1519      H1524   1.083       .  S
C1520      C1521   1.406       .  A
C1520      H1525   1.083       .  S
C1521      C1522   1.407       .  A
C1522      H1526   1.083       .  S
C1527      C1528   1.407       .  A
C1527      C1532   1.399       .  A
C1527      H1533   1.083       .  S
C1528      C1529   1.406       .  A
C1529      C1530   1.398       .  A
C1529      H1534   1.083       .  S
C1530      C1531   1.407       .  A
C1530      H1535   1.083       .  S
C1531      C1532   1.406       .  A
C1532      H1536   1.083       .  S
