geometry optimzed in LAMMPS
_audit_creation_date              2020-12-01 
_audit_creation_method            'lammps2cif' 
_symmetry_space_group_name_H-M    'P1' 
_symmetry_Int_Tables_number       1 
_symmetry_cell_setting            triclinic 
loop_ 
_symmetry_equiv_pos_as_xyz 
  x,y,z 
_cell_length_a                    28.3568493 
_cell_length_b                    29.093622716595956 
_cell_length_c                    31.2540408976257 
_cell_angle_alpha                 92.26220686510982 
_cell_angle_beta                  91.2837105971227 
_cell_angle_gamma                 88.11154545356285 
loop_ 
_atom_site_label 
_atom_site_type_symbol 
_atom_site_fract_x 
_atom_site_fract_y 
_atom_site_fract_z 
_atom_site_charge 
N1          N  0.44905766  0.56906927  0.28619202    -0.02800
C2          C  0.41946459  0.59584399  0.31086301    -0.00200
C3          C  0.38195600  0.61240188  0.28635298    -0.23100
C4          C  0.38878000  0.59530031  0.24515655    -0.23300
C5          C  0.43012516  0.56867000  0.24586988    -0.00300
H6          H  0.35370864  0.63575917  0.29694689     0.13400
H7          H  0.36627230  0.60203858  0.21753291     0.13500
N8          N  0.55453693  0.37107594  0.87080883    -0.02800
C9          C  0.57975635  0.34158164  0.84486898    -0.00200
C10         C  0.61708206  0.32150246  0.86703337    -0.23100
C11         C  0.61473109  0.33907671  0.90844699    -0.23300
C12         C  0.57612312  0.36949195  0.91005507    -0.00300
H13         H  0.64273607  0.29636396  0.85457183     0.13400
H14         H  0.63879535  0.33070623  0.93457733     0.13500
N15         N  0.65068235  0.58484164  0.96217339    -0.02800
C16         C  0.65894519  0.57993921  0.91917663    -0.00200
C17         C  0.67276022  0.62144478  0.90414502    -0.23100
C18         C  0.67267113  0.65267049  0.93774750    -0.23300
C19         C  0.65998283  0.62951938  0.97309067    -0.00300
H20         H  0.68651592  0.62722014  0.87284736     0.13400
H21         H  0.68592244  0.68713837  0.93749079     0.13500
N22         N  0.41234018  0.62352334  0.96702897    -0.02800
C23         C  0.36686483  0.63691362  0.97493104    -0.00200
C24         C  0.34042638  0.63424153  0.93723384    -0.23100
C25         C  0.37120591  0.62331030  0.90489635    -0.23300
C26         C  0.41555787  0.61843639  0.92382907    -0.00300
H27         H  0.30470851  0.64772226  0.93262057     0.13400
H28         H  0.36312685  0.62664378  0.87113984     0.13500
N29         N  0.37870458  0.36043681  0.19306311    -0.02800
C30         C  0.37316494  0.37039539  0.23577316    -0.00200
C31         C  0.36284436  0.33107815  0.25658218    -0.23100
C32         C  0.36015071  0.29632010  0.22620287    -0.23300
C33         C  0.36900184  0.31479171  0.18714945    -0.00300
H34         H  0.35246344  0.32905624  0.28956730     0.13400
H35         H  0.34741867  0.26238709  0.23151373     0.13500
N36         N  0.61665412  0.33259418  0.19538757    -0.02800
C37         C  0.66423630  0.32565599  0.19238299    -0.00200
C38         C  0.68407791  0.32141546  0.23297511    -0.23100
C39         C  0.64775103  0.32378423  0.26130699    -0.23300
C40         C  0.60647903  0.32960859  0.23751301    -0.00300
H41         H  0.72001014  0.31033938  0.24058371     0.13400
H42         H  0.65053614  0.31477215  0.29457010     0.13500
Zr43       Zr  0.51825467  0.49695933  0.99657835     2.17500
O44         O  0.48437882  0.49126397  0.92409538    -0.50700
O45         O  0.58662056  0.53677824  0.97049528    -0.73900
O46         O  0.46966221  0.56500406  0.97763525    -0.80700
O47         O  0.57524275  0.37796032  0.98518466    -0.82400
O48         O  0.43327187  0.59805971  0.03557637    -0.78000
O49         O  0.54116893  0.43501235  0.94597942    -0.89700
O50         O  0.63166384  0.55692100  0.02860715    -0.75600
O51         O  0.53179743  0.55238769  0.05344869    -0.85100
O52         O  0.58607579  0.46784958  0.03465420    -0.84800
O53         O  0.44739483  0.49876547  0.03795688    -0.71600
O54         O  0.49843483  0.42296637  0.02204485    -0.83700
Zr55       Zr  0.50904346  0.45275963  0.15967170     2.26400
Zr56       Zr  0.46188537  0.55352149  0.09583638     2.06300
Zr57       Zr  0.56621327  0.39511870  0.06154742     2.10000
Zr58       Zr  0.59943105  0.52273763  0.09129671     1.78800
O59         O  0.54702047  0.31452242  0.05033515    -0.92500
O60         O  0.61455764  0.60225571  0.11352088    -0.40300
O61         O  0.57978707  0.45005944  0.11852791    -0.77000
O62         O  0.53011243  0.52666332  0.13464951    -0.95600
O63         O  0.44150246  0.48054100  0.12112985    -0.88900
O64         O  0.49640708  0.39683869  0.10321227    -0.91800
C65         C  0.62227271  0.55688942  0.98819053     1.02000
C66         C  0.56282893  0.39587717  0.94946823     1.14900
C67         C  0.44084241  0.59501264  0.99518673     1.05700
O68         O  0.48210044  0.63241216  0.11525436    -0.93900
O69         O  0.44364297  0.56578513  0.17170166    -0.89700
O70         O  0.47168071  0.50622013  0.21110111    -0.82800
C71         C  0.45009452  0.54532578  0.20726144     1.12300
O72         O  0.38259320  0.41776532  0.99801849    -0.95900
Zr73       Zr  0.42894235  0.42512012  0.06449830     1.88900
O74         O  0.44206859  0.40879878  0.18322921    -0.72600
O75         O  0.37754152  0.57136583  0.10044609    -0.51800
O76         O  0.34915529  0.45621773  0.07553515    -0.96500
O77         O  0.42030421  0.34691303  0.03525813    -0.53700
O78         O  0.39838225  0.38537222  0.12512960    -0.73100
C79         C  0.40752056  0.38656693  0.16560625     0.99300
O80         O  0.55602983  0.47031405  0.22430842    -0.61900
O81         O  0.65024659  0.37925407  0.05127396    -0.56700
O82         O  0.55467657  0.38518890  0.18202493    -0.93400
O83         O  0.59853478  0.35827550  0.12596589    -0.91800
O84         O  0.67925879  0.49051568  0.08331662    -0.92200
O85         O  0.64481709  0.52593754  0.15847192    -0.91000
C86         C  0.58776893  0.35911846  0.16586664     1.18100
H87         H  0.61308217  0.46412833  0.01639846     0.34000
H88         H  0.53594579  0.54748036  0.15884470     0.44900
H89         H  0.49130786  0.36683893  0.11417139     0.38400
H90         H  0.42076751  0.50929371  0.02081701     0.34900
H91         H  0.59976620  0.62097978  0.09077369     0.26700
H92         H  0.36312244  0.55278855  0.07669177     0.32600
H93         H  0.32937717  0.42886099  0.07647222     0.38500
H94         H  0.69957438  0.51758635  0.08367424     0.33000
H95         H  0.66597708  0.39344476  0.07689423     0.31900
H96         H  0.57788348  0.29761308  0.05136551     0.33600
H97         H  0.38910950  0.33770559  0.04499570     0.32500
H98         H  0.62249804  0.53847846  0.18020776     0.36500
H99         H  0.58810575  0.45761372  0.21818981     0.29300
H100        H  0.49455683  0.51876164  0.90951548     0.33500
H101        H  0.37784843  0.44940202  0.98784846     0.36300
H102        H  0.65475131  0.34569860  0.05473247     0.29000
H103        H  0.55999898  0.50398058  0.22476717     0.41800
H104        H  0.51684456  0.63268409  0.11345011     0.31900
H105        H  0.59481307  0.60883915  0.13888847     0.39500
H106        H  0.44335551  0.32799886  0.05175214     0.31300
H107        H  0.36728549  0.55678733  0.12661868     0.31400
H108        H  0.44983253  0.49574796  0.92720414     0.31700
N109        N  0.56438683  0.21121292  0.54619531    -0.02800
C110        C  0.57545687  0.23608603  0.51223304    -0.00200
C111        C  0.56384024  0.21258714  0.47444164    -0.23100
C112        C  0.54431255  0.17230476  0.48573859    -0.23300
C113        C  0.54428494  0.17245387  0.53000405    -0.00300
H114        H  0.57176192  0.22196550  0.44229202     0.13400
H115        H  0.53477513  0.14409408  0.46396502     0.13500
N116        N  0.47031532  0.72396204  0.61009143    -0.02800
C117        C  0.45523163  0.70145901  0.64438171    -0.00200
C118        C  0.46437498  0.72747155  0.68149178    -0.23100
C119        C  0.48559290  0.76665791  0.66945211    -0.23300
C120        C  0.48856855  0.76402060  0.62537203    -0.00300
H121        H  0.45235884  0.72159338  0.71332247     0.13400
H122        H  0.49287086  0.79636159  0.69014620     0.13500
N123        N  0.62822180  0.83681694  0.73498562    -0.02800
C124        C  0.61563568  0.79215532  0.73644037    -0.00200
C125        C  0.61994723  0.76951284  0.69719170    -0.23100
C126        C  0.63373716  0.80133729  0.66980961    -0.23300
C127        C  0.63412344  0.84345696  0.69237732    -0.00300
H128        H  0.61097757  0.73436561  0.68880004     0.13400
H129        H  0.63411957  0.79562731  0.63541373     0.13500
N130        N  0.67674102  0.86866891  0.42905953    -0.02800
C131        C  0.69578942  0.87350304  0.39006272    -0.00200
C132        C  0.66123750  0.88587178  0.36055675    -0.23100
C133        C  0.61952804  0.88920432  0.38207442    -0.23300
C134        C  0.62977515  0.87872245  0.42422800    -0.00300
H135        H  0.66641194  0.89478362  0.32773379     0.13400
H136        H  0.58592572  0.90133697  0.36898581     0.13500
N137        N  0.39663664  0.10946707  0.41663287    -0.02800
C138        C  0.41088430  0.15337564  0.41100176    -0.00200
C139        C  0.43075909  0.17053402  0.44904752    -0.23100
C140        C  0.42878984  0.13730519  0.47819854    -0.23300
C141        C  0.40958424  0.09950571  0.45773202    -0.00300
H142        H  0.44705145  0.20335749  0.45497957     0.13400
H143        H  0.44363170  0.13950152  0.51006350     0.13500
N144        N  0.35244337  0.06718085  0.71510461    -0.02800
C145        C  0.33500797  0.06202716  0.75487024    -0.00200
C146        C  0.37069559  0.05103608  0.78368446    -0.23100
C147        C  0.41170054  0.04904631  0.76133836    -0.23300
C148        C  0.40009394  0.05902601  0.71931709    -0.00300
H149        H  0.36694669  0.04323615  0.81699192     0.13400
H150        H  0.44608253  0.03854371  0.77395592     0.13500
Zr151      Zr  0.46071035  0.04389523  0.57634204     2.17500
O152        O  0.40610505  0.11012532  0.58064701    -0.50700
O153        O  0.49985006  0.11639419  0.56325559    -0.73900
O154        O  0.42319074  0.05896235  0.64596563    -0.80700
O155        O  0.45259792  0.02798131  0.45698503    -0.82400
O156        O  0.47037146  0.02283300  0.69473194    -0.78000
O157        O  0.40783610  0.04714754  0.51365241    -0.89700
O158        O  0.57764355  0.10266243  0.55088560    -0.75600
O159        O  0.53405646  0.03727231  0.61523744    -0.85100
O160        O  0.51929300  0.02954099  0.52338029    -0.84800
O161        O  0.45359503  0.97697141  0.61902624    -0.71600
O162        O  0.43756290  0.97539806  0.53541004    -0.83700
Zr163      Zr  0.56758264  0.88979707  0.56664674     2.26400
Zr164      Zr  0.52752548  0.97108594  0.65816667     2.06300
Zr165      Zr  0.49752606  0.96106735  0.48364373     2.10000
Zr166      Zr  0.59223970  0.02230221  0.56195762     1.78800
O167        O  0.43906103  0.91337173  0.44708137    -0.92500
O168        O  0.64109056  0.05525660  0.61953130    -0.40300
O169        O  0.57159159  0.95449820  0.52156551    -0.77000
O170        O  0.58907126  0.95897785  0.60735090    -0.95600
O171        O  0.50756279  0.90222236  0.61807119    -0.88900
O172        O  0.49447147  0.89466250  0.52650088    -0.91800
C173        C  0.54065573  0.12883986  0.55183901     1.02000
C174        C  0.42108753  0.05392442  0.47552690     1.14900
C175        C  0.43381605  0.04790330  0.68445698     1.05700
O176        O  0.58316377  0.01751150  0.69998030    -0.93900
O177        O  0.57900137  0.90796331  0.68577187    -0.89700
O178        O  0.62057329  0.88148934  0.62834967    -0.82800
C179        C  0.61132563  0.88168917  0.66837391     1.12300
O180        O  0.35121680  0.92810491  0.57084786    -0.95900
Zr181      Zr  0.43514258  0.90873076  0.57837092     1.88900
O182        O  0.53268516  0.81819988  0.58887467    -0.72600
O183        O  0.49650196  0.94293375  0.72401780    -0.51800
O184        O  0.39204775  0.89881446  0.64382695    -0.96500
O185        O  0.39313211  0.85887185  0.52691560    -0.53700
O186        O  0.45450763  0.83168326  0.59972917    -0.73100
C187        C  0.49210217  0.80632296  0.60138712     0.99300
O188        O  0.62493422  0.82831547  0.54798558    -0.61900
O189        O  0.51381519  0.98722014  0.41239541    -0.56700
O190        O  0.60666076  0.87875259  0.49761010    -0.93400
O191        O  0.55956795  0.91466611  0.44865356    -0.91800
O192        O  0.63489576  0.04709111  0.50064336    -0.92200
O193        O  0.67072640  0.98778098  0.55208151    -0.91000
C194        C  0.59631020  0.89023792  0.45912630     1.18100
H195        H  0.52038869  0.05429537  0.50372333     0.34000
H196        H  0.61948307  0.95852551  0.62182308     0.44900
H197        H  0.49004773  0.86680740  0.50913816     0.38400
H198        H  0.42721670  0.97875513  0.63788172     0.34900
H199        H  0.66013644  0.07801336  0.60547636     0.26700
H200        H  0.49231160  0.90961430  0.71813587     0.32600
H201        H  0.41601732  0.88683615  0.66443500     0.38500
H202        H  0.62192297  0.02879698  0.47598196     0.33000
H203        H  0.54826560  0.99176562  0.41210792     0.31900
H204        H  0.41070719  0.93395087  0.44445884     0.33600
H205        H  0.41707799  0.83645849  0.51546749     0.32500
H206        H  0.66526297  0.95449836  0.54732818     0.36500
H207        H  0.65379493  0.83483866  0.56527040     0.29300
H208        H  0.41700391  0.13037002  0.60485685     0.33500
H209        H  0.34852669  0.94849387  0.54621801     0.36300
H210        H  0.50837880  0.96045877  0.39254077     0.29000
H211        H  0.61314389  0.79969438  0.55935228     0.41800
H212        H  0.60787168  0.99529089  0.70984768     0.31900
H213        H  0.61883536  0.07390578  0.63753927     0.39500
H214        H  0.38445072  0.87835724  0.50255676     0.31300
H215        H  0.52287973  0.94466023  0.74526867     0.31400
H216        H  0.37594728  0.09803268  0.58973380     0.31700
N217        N  0.09964520  0.13837688  0.98945687    -0.02800
C218        C  0.14740507  0.14528903  0.99098705    -0.00200
C219        C  0.16252557  0.15597223  0.95094529    -0.23100
C220        C  0.12394814  0.15813824  0.92454565    -0.23300
C221        C  0.08527931  0.15049241  0.94889211    -0.00300
H222        H  0.19719920  0.16701802  0.94288589     0.13400
H223        H  0.12331118  0.17251230  0.89307026     0.13500
N224        N  0.19417431  0.91518301  0.17371765    -0.02800
C225        C  0.20038725  0.92155092  0.21707408    -0.00200
C226        C  0.20799136  0.88016909  0.23677978    -0.23100
C227        C  0.20888337  0.84687658  0.20528766    -0.23300
C228        C  0.20265358  0.86881586  0.16715887    -0.00300
H229        H  0.21799596  0.87526304  0.26996842     0.13400
H230        H  0.22070226  0.81147586  0.20919242     0.13500
N231        N  0.01520521  0.00202402  0.28799883    -0.02800
C232        C  0.03997309  0.03301557  0.31278725    -0.00200
C233        C  0.04772219  0.01679452  0.35330417    -0.23100
C234        C  0.02624885  0.97562713  0.35437010    -0.23300
C235        C  0.00639993  0.96679042  0.31410103    -0.00300
H236        H  0.06321050  0.03533755  0.38056813     0.13400
H237        H  0.02157529  0.95676407  0.38301391     0.13500
N238        N  0.93283520  0.79444731  0.14775179    -0.02800
C239        C  0.90362789  0.76990568  0.12060148    -0.00200
C240        C  0.92013293  0.72506322  0.11492300    -0.23100
C241        C  0.95932294  0.72034831  0.14034521    -0.23300
C242        C  0.96632295  0.76247840  0.16129124    -0.00300
H243        H  0.90219432  0.69726586  0.09802763     0.13400
H244        H  0.97757988  0.68796944  0.14665154     0.13500
N245        N  0.80924076  0.03660229  0.00082512    -0.02800
C246        C  0.77575661  0.01486640  0.97558791    -0.00200
C247        C  0.73404008  0.04072920  0.97478813    -0.23100
C248        C  0.74084997  0.07917124  0.99995914    -0.23300
C249        C  0.78661493  0.07615275  0.01567692    -0.00300
H250        H  0.70226076  0.03293251  0.95643037     0.13400
H251        H  0.71508599  0.10675811  0.00630315     0.13500
N252        N  0.00336014  0.95683209  0.87931514    -0.02800
C253        C  0.96750979  0.93702311  0.85566894    -0.00200
C254        C  0.95489867  0.96428166  0.82179709    -0.23100
C255        C  0.98535165  0.99954714  0.82229906    -0.23300
C256        C  0.01605687  0.99373345  0.85685648    -0.00300
H257        H  0.93135077  0.95524651  0.79525063     0.13400
H258        H  0.98857756  0.02292678  0.79651874     0.13500
Zr259      Zr  0.97867929  0.03076290  0.01849587     2.17500
O260        O  0.94142469  0.09911686  0.98774054    -0.50700
O261        O  0.99068168  0.99775229  0.94499810    -0.73900
O262        O  0.03552602  0.09013195  0.00084234    -0.80700
O263        O  0.85514341  0.98479489  0.04116319    -0.82400
O264        O  0.10382157  0.07817455  0.03889457    -0.78000
O265        O  0.89233410  0.03945901  0.00556025    -0.89700
O266        O  0.01637426  0.92313894  0.94594380    -0.75600
O267        O  0.05110686  0.98625005  0.01941291    -0.85100
O268        O  0.95617505  0.95251745  0.02071806    -0.84800
O269        O  0.02129913  0.05623624  0.08269066    -0.71600
O270        O  0.93527935  0.02324682  0.08360361    -0.83700
Zr271      Zr  0.02821116  0.92645711  0.15047236     2.26400
Zr272      Zr  0.09392186  0.01065795  0.08367705     2.06300
Zr273      Zr  0.91405181  0.94387490  0.08578256     2.10000
Zr274      Zr  0.02811686  0.90812262  0.02176116     1.78800
O275        O  0.85083987  0.95962139  0.13631526    -0.92500
O276        O  0.10645988  0.88890768  0.99465280    -0.40300
O277        O  0.98656398  0.90037489  0.08668567    -0.77000
O278        O  0.07197226  0.93154429  0.08528940    -0.95600
O279        O  0.05111861  0.00435534  0.14875971    -0.88900
O280        O  0.95539165  0.96968757  0.14990034    -0.91800
C281        C  0.00346618  0.95920814  0.92587581     1.02000
C282        C  0.85480419  0.01882232  0.01596179     1.14900
C283        C  0.07828899  0.10079028  0.01141353     1.05700
O284        O  0.16174682  0.99247713  0.03897707    -0.93900
O285        O  0.15425687  0.96764926  0.12721188    -0.89700
O286        O  0.11274188  0.91790791  0.16456485    -0.82800
C287        C  0.15175824  0.93512649  0.15409090     1.12300
O288        O  0.93283921  0.11849548  0.13376223    -0.95900
Zr289      Zr  0.97854582  0.04785054  0.14726106     1.88900
O290        O  0.01536458  0.95951007  0.22293408    -0.72600
O291        O  0.13396163  0.06795611  0.12901086    -0.51800
O292        O  0.02431068  0.11573559  0.16510123    -0.96500
O293        O  0.91170871  0.05491116  0.19509963    -0.53700
O294        O  0.00313257  0.03659301  0.22150607    -0.73100
C295        C  0.01079804  0.99952857  0.24173666     0.99300
O296        O  0.05052958  0.86237713  0.19586040    -0.61900
O297        O  0.86599507  0.88901974  0.04479299    -0.56700
O298        O  0.98263267  0.85716969  0.15585354    -0.93400
O299        O  0.91367825  0.86729285  0.11872849    -0.91800
O300        O  0.97745913  0.84820068  0.99197151    -0.92200
O301        O  0.05428419  0.82938127  0.03528163    -0.91000
C302        C  0.94266991  0.84263362  0.14171971     1.18100
H303        H  0.93665488  0.94449980  0.99600395     0.34000
H304        H  0.09986911  0.91179549  0.08559427     0.44900
H305        H  0.93739767  0.96455296  0.17506084     0.38400
H306        H  0.02774166  0.08854850  0.08156329     0.34900
H307        H  0.10098531  0.87751315  0.96474615     0.26700
H308        H  0.13280494  0.05643809  0.15835951     0.32600
H309        H  0.04741539  0.10596247  0.18743761     0.38500
H310        H  0.94646085  0.86357948  0.98621150     0.33000
H311        H  0.83310136  0.89643027  0.05329217     0.31900
H312        H  0.83234590  0.93129899  0.13498889     0.33600
H313        H  0.88346694  0.05741270  0.17609154     0.32500
H314        H  0.04877917  0.82585820  0.06614386     0.36500
H315        H  0.07464111  0.84341854  0.18016150     0.29300
H316        H  0.95637657  0.10223038  0.95971795     0.33500
H317        H  0.90602401  0.10880380  0.11505445     0.36300
H318        H  0.86723407  0.89798902  0.01462019     0.29000
H319        H  0.06750304  0.87593571  0.22111267     0.41800
H320        H  0.18518689  0.01559749  0.04803985     0.31900
H321        H  0.12147212  0.91887130  0.99212013     0.39500
H322        H  0.91408640  0.08564367  0.20963821     0.31300
H323        H  0.16761102  0.06435389  0.12133884     0.31400
H324        H  0.95214014  0.12565440  0.00581572     0.31700
N325        N  0.24045575  0.43910202  0.67054389    -0.02800
C326        C  0.26214557  0.40988842  0.69857628    -0.00200
C327        C  0.23738404  0.37016483  0.70085844    -0.25100
C328        C  0.19894007  0.37485708  0.67400343    -0.23300
C329        C  0.20104563  0.41721872  0.65543145    -0.00300
H330        H  0.24592440  0.34122266  0.72065751     0.13400
H331        H  0.17083528  0.35064759  0.66995758     0.13500
N332        N  0.76660889  0.51327459  0.48506073    -0.02800
C333        C  0.73905713  0.54297540  0.46202636    -0.00200
C334        C  0.76117329  0.58415952  0.45878690    -0.23100
C335        C  0.80386166  0.57965871  0.48011573    -0.23300
C336        C  0.80676877  0.53590659  0.49612219    -0.00300
H337        H  0.74844023  0.61366527  0.44136937     0.13400
H338        H  0.83074531  0.60525852  0.48261372     0.13500
N339        N  0.87208413  0.67097269  0.67133576    -0.02800
C340        C  0.82767320  0.68628475  0.66047712    -0.00200
C341        C  0.79585575  0.65173708  0.66300132    -0.23100
C342        C  0.82135495  0.61279650  0.67269472    -0.23300
C343        C  0.86836780  0.62443464  0.67483103    -0.00300
H344        H  0.75939252  0.65289233  0.65192789     0.13400
H345        H  0.80781189  0.57839940  0.67025301     0.13500
N346        N  0.14680357  0.28350400  0.48898000    -0.02800
C347        C  0.19042358  0.26709287  0.50196359    -0.00200
C348        C  0.22133773  0.30244810  0.50803872    -0.23100
C349        C  0.19602980  0.34229131  0.50199222    -0.23300
C350        C  0.14992320  0.33047612  0.49263652    -0.00300
H351        H  0.25681243  0.29997690  0.52148924     0.13400
H352        H  0.20866877  0.37637465  0.50983764     0.13500
N353        N  0.90469800  0.38373005  0.72672405    -0.02800
C354        C  0.91906115  0.33901896  0.73379212    -0.00200
C355        C  0.88151267  0.31043609  0.72604286    -0.23100
C356        C  0.84204287  0.33798155  0.72138144    -0.23300
C357        C  0.85652731  0.38291862  0.72380950    -0.00300
H358        H  0.88083703  0.27438941  0.73342262     0.13400
H359        H  0.80636732  0.32637433  0.72364809     0.13500
N360        N  0.09736715  0.54026026  0.40396162    -0.02800
C361        C  0.06663134  0.55162533  0.37098631    -0.00200
C362        C  0.06950684  0.51842678  0.33818124    -0.23100
C363        C  0.10537220  0.48854222  0.34864889    -0.23300
C364        C  0.12538110  0.50550535  0.38649565    -0.00300
H365        H  0.05420455  0.52065019  0.30627346     0.13400
H366        H  0.12217362  0.46446582  0.32597060     0.13500
Zr367      Zr  0.91585147  0.48015232  0.60474505     2.17500
O368        O  0.83827773  0.44643151  0.60717214    -0.50700
O369        O  0.88981683  0.55007331  0.64574321    -0.73900
O370        O  0.90473836  0.43591257  0.67017518    -0.80700
O371        O  0.88900212  0.52663678  0.49536349    -0.82400
O372        O  0.97499998  0.40693315  0.69488454    -0.78000
O373        O  0.85194740  0.49992792  0.55288126    -0.89700
O374        O  0.94598407  0.60398490  0.65186302    -0.75600
O375        O  0.98042790  0.50340311  0.64976939    -0.85100
O376        O  0.94872836  0.54496917  0.57294169    -0.84800
O377        O  0.96941453  0.41398798  0.60351323    -0.71600
O378        O  0.94132028  0.45476324  0.53395484    -0.83700
Zr379      Zr  0.09432458  0.47812203  0.54643890     2.26400
Zr380      Zr  0.03441336  0.43835309  0.64835737     2.06300
Zr381      Zr  0.97461797  0.52035824  0.50322416     2.10000
Zr382      Zr  0.01391310  0.56746948  0.61720916     1.78800
O383        O  0.94535754  0.50105613  0.43103378    -0.92500
O384        O  0.04063660  0.58465811  0.69060084    -0.40300
O385        O  0.04067041  0.54415833  0.54680055    -0.77000
O386        O  0.06895535  0.50337604  0.61729405    -0.95600
O387        O  0.06077863  0.41382996  0.57852661    -0.88900
O388        O  0.02894631  0.45533185  0.50186032    -0.91800
C389        C  0.90423000  0.59038291  0.65766914     1.02000
C390        C  0.85165250  0.51796670  0.51582881     1.14900
C391        C  0.92962954  0.41112805  0.69650781     1.05700
O392        O  0.05309931  0.47071165  0.71951910    -0.93900
O393        O  0.11965276  0.42943316  0.65445874    -0.89700
O394        O  0.15847360  0.45494200  0.59732121    -0.82800
C395        C  0.15759673  0.43664563  0.63429669     1.12300
O396        O  0.92535907  0.34665380  0.52343096    -0.95900
Zr397      Zr  0.99678322  0.39038220  0.53357375     1.88900
O398        O  0.12364025  0.40591749  0.51262478    -0.72600
O399        O  0.05954376  0.36039898  0.66592261    -0.51800
O400        O  0.00422773  0.31801052  0.57017342    -0.96500
O401        O  0.97829277  0.37051182  0.45869550    -0.53700
O402        O  0.06895800  0.35058551  0.50844304    -0.73100
C403        C  0.11103850  0.36434441  0.50401985     0.99300
O404        O  0.16794055  0.51928492  0.54676568    -0.61900
O405        O  0.96227701  0.60289948  0.49477038    -0.56700
O406        O  0.10437434  0.51120938  0.47445027    -0.93400
O407        O  0.03330039  0.53973766  0.45094640    -0.91800
O408        O  0.99750610  0.64109967  0.58454413    -0.92200
O409        O  0.08353159  0.61442383  0.62045665    -0.91000
C410        C  0.07778629  0.53133140  0.44586185     1.18100
H411        H  0.92559775  0.56990136  0.57068273     0.34000
H412        H  0.09601668  0.51284467  0.63433482     0.44900
H413        H  0.03877918  0.44740914  0.47302789     0.38400
H414        H  0.95464685  0.38789469  0.61504783     0.34900
H415        H  0.01855732  0.56873673  0.70864187     0.26700
H416        H  0.05876432  0.35998473  0.69756186     0.32600
H417        H  0.00954577  0.29416395  0.54714557     0.38500
H418        H  0.99766994  0.66411503  0.60874964     0.33000
H419        H  0.96516457  0.60717791  0.46367953     0.31900
H420        H  0.97176299  0.48408964  0.41663270     0.33600
H421        H  0.00738245  0.37603661  0.44300126     0.32500
H422        H  0.10389518  0.60107274  0.59752433     0.36500
H423        H  0.18057643  0.51502478  0.51755999     0.29300
H424        H  0.82460092  0.45765075  0.63468841     0.33500
H425        H  0.90063924  0.36566114  0.53825972     0.36300
H426        H  0.92840264  0.60926634  0.50033213     0.29000
H427        H  0.15827256  0.55225040  0.54947687     0.41800
H428        H  0.02214364  0.47969985  0.73188702     0.31900
H429        H  0.07099497  0.56722263  0.69388307     0.39500
H430        H  0.95559804  0.39502272  0.44963384     0.31300
H431        H  0.03323905  0.34105007  0.65568766     0.31400
H432        H  0.84438342  0.41300228  0.61027883     0.31700
C433        C  0.93617670  0.77250223  0.72140125    -0.21800
C434        C  0.93156567  0.76564962  0.76544234     0.10200
C435        C  0.91296499  0.72374375  0.77777253     0.10600
C436        C  0.89678167  0.69146884  0.74618206    -0.16700
C437        C  0.89929342  0.69924463  0.70198609    -0.27200
C438        C  0.92131083  0.73961482  0.68983241     0.18900
C439        C  0.94333881  0.80402124  0.79752717     0.12900
C440        C  0.90997233  0.71309855  0.82436578    -0.11500
H441        H  0.88001522  0.66084231  0.75612346     0.13100
C442        C  0.92986009  0.74874651  0.64372823    -0.22300
H443        H  0.95095238  0.80417162  0.71144737     0.08800
C444        C  0.99006635  0.81838711  0.80560954     0.05100
C445        C  0.99816485  0.85914600  0.83065694    -0.19600
C446        C  0.96066744  0.88634569  0.84798521    -0.11900
C447        C  0.91444918  0.86952313  0.84301216     0.13800
C448        C  0.90636199  0.82890403  0.81801440    -0.22300
C449        C  0.03137351  0.79130430  0.78695140    -0.05400
H450        H  0.03356710  0.87189292  0.83337187     0.15400
C451        C  0.87311035  0.89600702  0.86228955    -0.15500
H452        H  0.87051830  0.81789248  0.81248124     0.09700
H453        H  0.90849356  0.77941693  0.63401604     0.07500
H454        H  0.92119122  0.71890132  0.62225580     0.08700
H455        H  0.96781080  0.75531626  0.63960642     0.07800
H456        H  0.88633680  0.73873811  0.84106469     0.02700
H457        H  0.94572047  0.71402529  0.83956920     0.03100
H458        H  0.89588102  0.67843375  0.82858915     0.06600
H459        H  0.06548614  0.80654318  0.79695747     0.05600
H460        H  0.02895295  0.79058931  0.75146296    -0.00100
H461        H  0.03147862  0.75551122  0.79805172     0.01300
H462        H  0.86910872  0.93034015  0.84821050     0.05000
H463        H  0.87880508  0.90047863  0.89745328     0.06900
H464        H  0.83958372  0.87788092  0.85635885     0.07800
C465        C  0.99226619  0.74838948  0.27838185    -0.21800
C466        C  0.02908663  0.71487315  0.27536503     0.10200
C467        C  0.05403454  0.71045861  0.23659230     0.10600
C468        C  0.03810008  0.73532861  0.20088621    -0.16700
C469        C  0.99628829  0.76295826  0.20185177    -0.27200
C470        C  0.97650872  0.77327148  0.24239403     0.18900
C471        C  0.03531895  0.67953995  0.30933055     0.12900
C472        C  0.09476013  0.67626886  0.23133327    -0.11500
H473        H  0.05472482  0.72825692  0.17031462     0.13100
C474        C  0.93783099  0.80917479  0.24766462    -0.22300
H475        H  0.97407252  0.75331156  0.30842562     0.08800
C476        C  0.07581333  0.67537505  0.33657418     0.05100
C477        C  0.08347162  0.63526376  0.36053580    -0.19600
C478        C  0.05085904  0.59962935  0.35913433    -0.11900
C479        C  0.00750287  0.60718421  0.33640971     0.13800
C480        C  0.00071643  0.64635600  0.31150701    -0.22300
C481        C  0.11151391  0.71251827  0.34084827    -0.05400
H482        H  0.11633874  0.63079017  0.37845554     0.15400
C483        C  0.96799809  0.57384812  0.33818565    -0.15500
H484        H  0.96880301  0.65012744  0.29203347     0.09700
H485        H  0.92589347  0.81168693  0.28105607     0.07500
H486        H  0.90724723  0.80039242  0.22720593     0.08700
H487        H  0.95064705  0.84318248  0.23910417     0.07800
H488        H  0.08313969  0.64111995  0.23753562     0.02700
H489        H  0.12386867  0.68540722  0.25400203     0.03100
H490        H  0.10896459  0.67578444  0.19847719     0.06600
H491        H  0.14662703  0.69848071  0.33089895     0.05600
H492        H  0.11407546  0.72503467  0.37482205    -0.00100
H493        H  0.10183291  0.74248078  0.32121124     0.01300
H494        H  0.93588718  0.58636692  0.32064785     0.05000
H495        H  0.95854523  0.56979808  0.37205403     0.06900
H496        H  0.97814905  0.53975409  0.32367760     0.07800
C497        C  0.09098780  0.24290134  0.38231947    -0.21800
C498        C  0.08230942  0.19703172  0.39036270     0.10200
C499        C  0.09011703  0.18157028  0.43225708     0.10600
C500        C  0.10753876  0.21184571  0.46473899    -0.16700
C501        C  0.11849963  0.25767038  0.45694738    -0.27200
C502        C  0.10916276  0.27332825  0.41459194     0.18900
C503        C  0.06820124  0.16430677  0.35446263     0.12900
C504        C  0.08169763  0.13229196  0.44236554    -0.11500
H505        H  0.11472382  0.19856445  0.49600320     0.13100
C506        C  0.12047851  0.32094992  0.40161177    -0.22300
H507        H  0.08500954  0.25450108  0.35005468     0.08800
C508        C  0.02065869  0.15295867  0.34653021     0.05100
C509        C  0.01027620  0.11263967  0.32193443    -0.19600
C510        C  0.04656050  0.08273659  0.30638148    -0.11900
C511        C  0.09311273  0.09872433  0.30803174     0.13800
C512        C  0.10359648  0.13900387  0.33236010    -0.22300
C513        C  0.98124764  0.18158813  0.36656996    -0.05400
H514        H  0.97432700  0.10100277  0.32051002     0.15400
C515        C  0.13308801  0.07091986  0.28828955    -0.15500
H516        H  0.14008976  0.14840046  0.33705593     0.09700
H517        H  0.09857440  0.34696343  0.41962665     0.07500
H518        H  0.11278434  0.32597317  0.36707635     0.08700
H519        H  0.15858237  0.32691438  0.40725218     0.07800
H520        H  0.10454637  0.10879813  0.42236540     0.02700
H521        H  0.04418522  0.12431686  0.43565758     0.03100
H522        H  0.08978035  0.12549623  0.47651208     0.06600
H523        H  0.94614084  0.16803388  0.35735383     0.05600
H524        H  0.98251799  0.21743959  0.35582007    -0.00100
H525        H  0.98497037  0.18181679  0.40200183     0.01300
H526        H  0.15130986  0.09196846  0.26526002     0.05000
H527        H  0.12073449  0.03944070  0.27080011     0.06900
H528        H  0.15847580  0.06090327  0.31391875     0.07800
C529        C  0.00026199  0.26379429  0.80212164    -0.21800
C530        C  0.98107531  0.27208593  0.84295835     0.10200
C531        C  0.94750578  0.30896920  0.84828679     0.10600
C532        C  0.93328542  0.33529935  0.81274097    -0.16700
C533        C  0.94976557  0.32455004  0.77111462    -0.27200
C534        C  0.98409055  0.28827578  0.76625253     0.18900
C535        C  0.99568489  0.24024261  0.87842375     0.12900
C536        C  0.92361097  0.31828144  0.89046420    -0.11500
H537        H  0.90548129  0.36151380  0.81664738     0.13100
C538        C  0.00214805  0.27241393  0.72304591    -0.22300
H539        H  0.02621797  0.23590907  0.79760623     0.08800
C540        C  0.98968570  0.19193413  0.87457297     0.05100
C541        C  0.01363127  0.16239247  0.90327031    -0.19600
C542        C  0.04256628  0.17943261  0.93695801    -0.11900
C543        C  0.04345637  0.22802169  0.94396438     0.13800
C544        C  0.02083988  0.25755819  0.91446196    -0.22300
C545        C  0.95936704  0.17019656  0.83967481    -0.05400
H546        H  0.01267212  0.12550400  0.89717711     0.15400
C547        C  0.07142000  0.24898127  0.98087369    -0.15500
H548        H  0.02563934  0.29429566  0.91805945     0.09700
H549        H  0.99324063  0.23588100  0.71650615     0.07500
H550        H  0.04108560  0.27526221  0.72282008     0.08700
H551        H  0.98671862  0.29291205  0.69676742     0.07800
H552        H  0.94972653  0.32886839  0.91554442     0.02700
H553        H  0.90624806  0.28676275  0.90015992     0.03100
H554        H  0.89616927  0.34629634  0.88842725     0.06600
H555        H  0.93282346  0.14871801  0.85424523     0.05600
H556        H  0.98170705  0.14798841  0.81808935    -0.00100
H557        H  0.93978192  0.19590539  0.82028665     0.01300
H558        H  0.10935525  0.23893826  0.97856765     0.05000
H559        H  0.06852818  0.28716983  0.98176029     0.06900
H560        H  0.05746951  0.23713527  0.01123544     0.07800
C561        C  0.20224112  0.18371332  0.59217856    -0.21800
C562        C  0.24627425  0.16252077  0.58287890     0.10200
C563        C  0.26626998  0.16977577  0.54272026     0.10600
C564        C  0.24281189  0.19898757  0.51375366    -0.16700
C565        C  0.20114770  0.22368557  0.52470489    -0.27200
C566        C  0.18039324  0.21557011  0.56451464     0.18900
C567        C  0.27322330  0.13769601  0.61738608     0.12900
C568        C  0.31464984  0.15070823  0.53205302    -0.11500
H569        H  0.25973565  0.20648783  0.48416985     0.13100
C570        C  0.13829815  0.24398947  0.58025622    -0.22300
H571        H  0.18689720  0.17824467  0.62294626     0.08800
C572        C  0.29204671  0.16177557  0.65382616     0.05100
C573        C  0.31789723  0.13751203  0.68516031    -0.19600
C574        C  0.32720345  0.08993206  0.68062052    -0.11900
C575        C  0.30992042  0.06605387  0.64345978     0.13800
C576        C  0.28219906  0.08995292  0.61294109    -0.22300
C577        C  0.28614285  0.21335054  0.65923283    -0.05400
H578        H  0.33153327  0.15579958  0.71342728     0.15400
C579        C  0.32200457  0.01618402  0.63375685    -0.15500
H580        H  0.26867566  0.07137442  0.58477588     0.09700
H581        H  0.12786283  0.23418117  0.61261574     0.07500
H582        H  0.10739301  0.23937589  0.55841666     0.08700
H583        H  0.14693801  0.28096485  0.58230246     0.07800
H584        H  0.31535186  0.11257034  0.53194088     0.02700
H585        H  0.34036371  0.16462106  0.55603296     0.03100
H586        H  0.32583202  0.16099397  0.50017844     0.06600
H587        H  0.30496217  0.22680406  0.68842163     0.05600
H588        H  0.24827303  0.22344763  0.66217919    -0.00100
H589        H  0.30068465  0.22985425  0.63115359     0.01300
H590        H  0.28929290  0.99631273  0.63066056     0.05000
H591        H  0.34559343  0.00095033  0.65842907     0.06900
H592        H  0.34074654  0.01309223  0.60295777     0.07800
C593        C  0.20980509  0.02424201  0.77179120    -0.21800
C594        C  0.19594545  0.05445973  0.80555747     0.10200
C595        C  0.22709148  0.08885152  0.82034913     0.10600
C596        C  0.27004789  0.09350679  0.79968841    -0.16700
C597        C  0.28467799  0.06224825  0.76688957    -0.27200
C598        C  0.25471174  0.02596185  0.75410210     0.18900
C599        C  0.15120727  0.04518796  0.82728532     0.12900
C600        C  0.21785279  0.11869996  0.85971469    -0.11500
H601        H  0.29402220  0.11960412  0.81155745     0.13100
C602        C  0.27046841  0.98553049  0.72591290    -0.22300
H603        H  0.18685427  0.99659284  0.76160107     0.08800
C604        C  0.10968117  0.07230001  0.82138302     0.05100
C605        C  0.06707255  0.05773125  0.83770635    -0.19600
C606        C  0.06391393  0.01496442  0.85726769    -0.11900
C607        C  0.10672638  0.98986341  0.86607121     0.13800
C608        C  0.14956986  0.00562165  0.85121311    -0.22300
C609        C  0.10956301  0.11471977  0.79522558    -0.05400
H610        H  0.03512810  0.07805670  0.83164749     0.15400
C611        C  0.10841560  0.94561743  0.88938536    -0.15500
H612        H  0.18198679  0.98559457  0.85635805     0.09700
H613        H  0.24874620  0.98452158  0.69595548     0.07500
H614        H  0.26564998  0.95319715  0.74283439     0.08700
H615        H  0.30820899  0.98616443  0.71822077     0.07800
H616        H  0.18476910  0.10995094  0.87493585     0.02700
H617        H  0.21563771  0.15543253  0.85131873     0.03100
H618        H  0.24700772  0.11359195  0.88355776     0.06600
H619        H  0.07379769  0.13127995  0.79271814     0.05600
H620        H  0.12148461  0.10534092  0.76232317    -0.00100
H621        H  0.13360442  0.14028087  0.81021549     0.01300
H622        H  0.08632954  0.91970277  0.87248774     0.05000
H623        H  0.09662569  0.95262980  0.92255810     0.06900
H624        H  0.14478430  0.93040007  0.89169823     0.07800
C625        C  0.27562140  0.01961709  0.25709908    -0.21800
C626        C  0.26587867  0.01909648  0.30090268     0.10200
C627        C  0.22721566  0.99460532  0.31433841     0.10600
C628        C  0.20068189  0.96918265  0.28392561    -0.16700
C629        C  0.21392912  0.96473548  0.24076651    -0.27200
C630        C  0.25064741  0.99207472  0.22683258     0.18900
C631        C  0.29884112  0.04104575  0.33251221     0.12900
C632        C  0.21560161  0.99311073  0.36108002    -0.11500
H633        H  0.17240062  0.94858364  0.29472462     0.13100
C634        C  0.26630857  0.98966952  0.18107166    -0.22300
H635        H  0.30509007  0.03910003  0.24704892     0.08800
C636        C  0.34152787  0.01852259  0.34517527     0.05100
C637        C  0.37214981  0.04072003  0.37471630    -0.19600
C638        C  0.36136558  0.08522965  0.39139757    -0.11900
C639        C  0.31683319  0.10626285  0.38094642     0.13800
C640        C  0.28659585  0.08417661  0.35111959    -0.22300
C641        C  0.35493012  0.97125416  0.32711900    -0.05400
H642        H  0.40577038  0.02438722  0.38302746     0.15400
C643        C  0.29943499  0.15145337  0.40094117    -0.15500
H644        H  0.25304601  0.10063690  0.34243611     0.09700
H645        H  0.27895323  0.95420542  0.17209321     0.07500
H646        H  0.29566355  0.01310554  0.17606349     0.08700
H647        H  0.23646566  0.99996353  0.15960847     0.07800
H648        H  0.20747273  0.02841677  0.37419027     0.02700
H649        H  0.24615669  0.97812840  0.37916983     0.03100
H650        H  0.18455386  0.97181092  0.36612394     0.06600
H651        H  0.38912893  0.95833482  0.34076883     0.05600
H652        H  0.35826326  0.97220271  0.29184982    -0.00100
H653        H  0.32738704  0.94671272  0.33461738     0.01300
H654        H  0.29476685  0.17730074  0.37586404     0.05000
H655        H  0.32337871  0.16522070  0.42627002     0.06900
H656        H  0.26488652  0.14677087  0.41598134     0.07800
C657        C  0.76103539  0.84505308  0.52095645    -0.21800
C658        C  0.75106195  0.79932953  0.52868571     0.10200
C659        C  0.71388257  0.77785274  0.50555017     0.10600
C660        C  0.68966451  0.80177636  0.47319246    -0.16700
C661        C  0.70007015  0.84733886  0.46497024    -0.27200
C662        C  0.73508075  0.86969361  0.49017156     0.18900
C663        C  0.77766270  0.77547731  0.56309981     0.12900
C664        C  0.69846325  0.73055916  0.51613330    -0.11500
H665        H  0.66214608  0.78512456  0.45429612     0.13100
C666        C  0.74447846  0.91978384  0.48653939    -0.22300
H667        H  0.78838238  0.86198439  0.53988952     0.08800
C668        C  0.81312316  0.74158077  0.55383718     0.05100
C669        C  0.83194193  0.71500456  0.58708888    -0.19600
C670        C  0.81730956  0.72277570  0.62951631    -0.11900
C671        C  0.78479851  0.75920621  0.63899582     0.13800
C672        C  0.76519159  0.78519223  0.60571241    -0.22300
C673        C  0.83072994  0.73324846  0.50894673    -0.05400
H674        H  0.85641746  0.68654967  0.57963854     0.15400
C675        C  0.76980005  0.76953050  0.68412221    -0.15500
H676        H  0.73857421  0.81189075  0.61268362     0.09700
H677        H  0.77958270  0.92370571  0.47236679     0.07500
H678        H  0.74451375  0.93703013  0.51883935     0.08700
H679        H  0.71675896  0.93735131  0.46717546     0.07800
H680        H  0.68786610  0.73070551  0.55013212     0.02700
H681        H  0.72756494  0.70468835  0.51109158     0.03100
H682        H  0.66780999  0.71968937  0.49587732     0.06600
H683        H  0.85888304  0.70579707  0.50747704     0.05600
H684        H  0.84551627  0.76536055  0.49760783    -0.00100
H685        H  0.80159715  0.72268492  0.48685063     0.01300
H686        H  0.74475901  0.79967094  0.68617292     0.05000
H687        H  0.80126672  0.77727573  0.70461552     0.06900
H688        H  0.75231604  0.73925357  0.69633328     0.07800
C689        C  0.92540301  0.87462657  0.34385854    -0.21800
C690        C  0.88286853  0.89076348  0.32528648     0.10200
C691        C  0.88470456  0.92252788  0.29215738     0.10600
C692        C  0.92709237  0.94434264  0.28500283    -0.16700
C693        C  0.96880643  0.93205078  0.30741754    -0.27200
C694        C  0.96864852  0.89253818  0.33266364     0.18900
C695        C  0.83741591  0.88297176  0.34660794     0.12900
C696        C  0.84176086  0.93601660  0.26567625    -0.11500
H697        H  0.92621141  0.97328509  0.26426523     0.13100
C698        C  0.01343393  0.86934194  0.34894051    -0.22300
H699        H  0.92502006  0.84916798  0.36819212     0.08800
C700        C  0.81731176  0.83933766  0.34994089     0.05100
C701        C  0.77241063  0.83667356  0.36817471    -0.19600
C702        C  0.74657601  0.87661990  0.38117079    -0.11900
C703        C  0.76694710  0.92003545  0.37774143     0.13800
C704        C  0.81263534  0.92227916  0.36244579    -0.22300
C705        C  0.84108664  0.79614302  0.33164668    -0.05400
H706        H  0.75605190  0.80363203  0.36963633     0.15400
C707        C  0.74092820  0.96519323  0.38754466    -0.15500
H708        H  0.82807101  0.95572739  0.36033346     0.09700
H709        H  0.01408420  0.83250415  0.33816393     0.07500
H710        H  0.01493224  0.87159325  0.38448168     0.08700
H711        H  0.04538880  0.88465001  0.33632274     0.07800
H712        H  0.83258778  0.97304468  0.27181135     0.02700
H713        H  0.81071830  0.91549794  0.27256996     0.03100
H714        H  0.84948640  0.93004537  0.23118562     0.06600
H715        H  0.81965249  0.76545731  0.33599062     0.05600
H716        H  0.87580240  0.78990458  0.34771423    -0.00100
H717        H  0.84582332  0.79944470  0.29677499     0.01300
H718        H  0.76044683  0.98495725  0.41295959     0.05000
H719        H  0.70444412  0.96118453  0.39834402     0.06900
H720        H  0.73880891  0.98566349  0.35828019     0.07800
C721        C  0.71992911  0.85915775  0.82416799    -0.21800
C722        C  0.70839092  0.90439073  0.83753595     0.10200
C723        C  0.67102094  0.92795773  0.81582994     0.10600
C724        C  0.64559212  0.90526907  0.78205841    -0.16700
C725        C  0.65657305  0.85940832  0.76892870    -0.27200
C726        C  0.69571016  0.83670266  0.78998819     0.18900
C727        C  0.73548343  0.92572544  0.87481082     0.12900
C728        C  0.65739855  0.97684116  0.82888681    -0.11500
H729        H  0.61647678  0.92318959  0.76623021     0.13100
C730        C  0.71508842  0.78943958  0.77734689    -0.22300
H731        H  0.74903140  0.84127826  0.84023259     0.08800
C732        C  0.72733835  0.91399989  0.91746941     0.05100
C733        C  0.74993032  0.93817390  0.95177786    -0.19600
C734        C  0.78001544  0.97459337  0.94483429    -0.11900
C735        C  0.79218268  0.98253293  0.90213713     0.13800
C736        C  0.76971049  0.95829682  0.86769467    -0.22300
C737        C  0.69223774  0.87819376  0.92697057    -0.05400
H738        H  0.73961564  0.93236275  0.98427191     0.15400
C739        C  0.82644235  0.01917356  0.89297479    -0.15500
H740        H  0.77750030  0.96611931  0.83503752     0.09700
H741        H  0.70859702  0.76535509  0.80309802     0.07500
H742        H  0.75379405  0.79086552  0.77317978     0.08700
H743        H  0.70050195  0.77544756  0.74690445     0.07800
H744        H  0.68765880  0.99934991  0.82462630     0.02700
H745        H  0.64723805  0.97877514  0.86303061     0.03100
H746        H  0.62712685  0.99014054  0.80931730     0.06600
H747        H  0.68880424  0.87419711  0.96195038     0.05600
H748        H  0.70375392  0.84433935  0.91250756    -0.00100
H749        H  0.65698723  0.88824725  0.91351001     0.01300
H750        H  0.83244512  0.02112603  0.85810814     0.05000
H751        H  0.86088561  0.01120610  0.90908540     0.06900
H752        H  0.81276918  0.05335716  0.90500410     0.07800
C753        C  0.27993521  0.55964053  0.65713338    -0.21800
C754        C  0.32524212  0.55044909  0.64084387     0.10200
C755        C  0.33842673  0.50488816  0.62799669     0.10600
C756        C  0.30726704  0.46938937  0.63424745    -0.16700
C757        C  0.26343222  0.47790125  0.65367815    -0.27200
C758        C  0.24880719  0.52395092  0.66370011     0.18900
C759        C  0.35928707  0.58836589  0.63998216     0.12900
C760        C  0.38567707  0.49350962  0.60838503    -0.11500
H761        H  0.31831612  0.43408282  0.62649287     0.13100
C762        C  0.20192236  0.53649133  0.68331259    -0.22300
H763        H  0.26960247  0.59469786  0.66668005     0.08800
C764        C  0.35386740  0.62418303  0.61100073     0.05100
C765        C  0.38580532  0.66018119  0.61297626    -0.19600
C766        C  0.42419568  0.66074436  0.64230070    -0.11900
C767        C  0.43044469  0.62382669  0.67047149     0.13800
C768        C  0.39761201  0.58853479  0.66920831    -0.22300
C769        C  0.31467843  0.62421469  0.57766336    -0.05400
H770        H  0.37973711  0.68870425  0.59220467     0.15400
C771        C  0.47195031  0.62056212  0.70140254    -0.15500
H772        H  0.40168580  0.56084791  0.69136351     0.09700
H773        H  0.18083403  0.55859008  0.66135447     0.07500
H774        H  0.20753413  0.55589039  0.71421785     0.08700
H775        H  0.18125355  0.50602799  0.68974184     0.07800
H776        H  0.41457401  0.50185686  0.63161763     0.02700
H777        H  0.38944610  0.51364038  0.57927128     0.03100
H778        H  0.38963684  0.45638585  0.59899168     0.06600
H779        H  0.31661701  0.65380370  0.55643727     0.05600
H780        H  0.27992883  0.62645871  0.59334380    -0.00100
H781        H  0.31720801  0.59205710  0.55737480     0.01300
H782        H  0.46944302  0.64822729  0.72659762     0.05000
H783        H  0.50547034  0.62307142  0.68414577     0.06900
H784        H  0.47325080  0.58738558  0.71788969     0.07800
C785        C  0.62146261  0.35488009  0.49324616    -0.21800
C786        C  0.66620544  0.35171192  0.51321637     0.10200
C787        C  0.67944767  0.31204419  0.53561603     0.10600
C788        C  0.64837813  0.27546644  0.53594590    -0.16700
C789        C  0.60426308  0.27781350  0.51467680    -0.27200
C790        C  0.59026050  0.31835696  0.49365608     0.18900
C791        C  0.69893997  0.38994744  0.50896060     0.12900
C792        C  0.72664974  0.30807212  0.55844106    -0.11500
H793        H  0.65933415  0.24422904  0.55154647     0.13100
C794        C  0.54231342  0.32354328  0.47222863    -0.22300
H795        H  0.61133909  0.38579957  0.47659877     0.08800
C796        C  0.72700121  0.39270841  0.47244220     0.05100
C797        C  0.75382563  0.43189894  0.46759216    -0.19600
C798        C  0.75172595  0.46904884  0.49757135    -0.11900
C799        C  0.72477879  0.46546325  0.53475337     0.13800
C800        C  0.69933131  0.42563730  0.54035258    -0.22300
C801        C  0.72697374  0.35517991  0.43782142    -0.05400
H802        H  0.77398673  0.43506071  0.43889393     0.15400
C803        C  0.72014651  0.50417689  0.56792629    -0.15500
H804        H  0.67772952  0.42343646  0.56834796     0.09700
H805        H  0.53891203  0.29837871  0.44486751     0.07500
H806        H  0.53627954  0.35845574  0.45959325     0.08700
H807        H  0.51442952  0.31789857  0.49567031     0.07800
H808        H  0.72946915  0.33605417  0.58348651     0.02700
H809        H  0.75538412  0.31092413  0.53523850     0.03100
H810        H  0.73156679  0.27462629  0.57418273     0.06600
H811        H  0.75056689  0.36282731  0.41129815     0.05600
H812        H  0.69072997  0.35149194  0.42420018    -0.00100
H813        H  0.73924821  0.32207439  0.45139333     0.01300
H814        H  0.73344144  0.49213641  0.59936765     0.05000
H815        H  0.68242243  0.51504414  0.57086874     0.06900
H816        H  0.74024073  0.53465675  0.56009405     0.07800
C817        C  0.43388012  0.19650523  0.29902876    -0.21800
C818        C  0.44887898  0.24055278  0.31205672     0.10200
C819        C  0.43371886  0.25856085  0.35260972     0.10600
C820        C  0.41020518  0.22987662  0.37955970    -0.16700
C821        C  0.40928290  0.18191880  0.37152078    -0.27200
C822        C  0.41885118  0.16541922  0.32906240     0.18900
C823        C  0.48603743  0.26272282  0.28650657     0.12900
C824        C  0.44504309  0.30609613  0.37032515    -0.11500
H825        H  0.39837195  0.24412097  0.41018445     0.13100
C826        C  0.41716733  0.11560724  0.31490540    -0.22300
H827        H  0.43909402  0.18461977  0.26620567     0.08800
C828        C  0.52712792  0.23748503  0.27205674     0.05100
C829        C  0.56330490  0.26071798  0.25305998    -0.19600
C830        C  0.56272224  0.30873621  0.25178329    -0.11900
C831        C  0.52326102  0.33415134  0.26765008     0.13800
C832        C  0.48397110  0.31062750  0.28092586    -0.22300
C833        C  0.53585920  0.18670400  0.27886821    -0.05400
H834        H  0.59414592  0.24137896  0.24150716     0.15400
C835        C  0.52288212  0.38558812  0.27452898    -0.15500
H836        H  0.45292128  0.33067830  0.28982890     0.09700
H837        H  0.43158067  0.10923657  0.28237059     0.07500
H838        H  0.38004649  0.10511278  0.31288494     0.08700
H839        H  0.43881275  0.09421997  0.33698515     0.07800
H840        H  0.42386439  0.33257567  0.35324679     0.02700
H841        H  0.48337420  0.31199100  0.36819711     0.03100
H842        H  0.43605869  0.31083631  0.40466953     0.06600
H843        H  0.57278205  0.17551194  0.27173728     0.05600
H844        H  0.51315671  0.16574204  0.25703202    -0.00100
H845        H  0.52990577  0.17892452  0.31277556     0.01300
H846        H  0.49483733  0.40170536  0.25427337     0.05000
H847        H  0.55738204  0.39991240  0.26749036     0.06900
H848        H  0.51564507  0.39475960  0.30864973     0.07800
C849        C  0.77450543  0.15343548  0.11031073    -0.21800
C850        C  0.77128312  0.19515187  0.08910728     0.10200
C851        C  0.79135312  0.19706994  0.04826747     0.10600
C852        C  0.80832380  0.15606828  0.02754327    -0.16700
C853        C  0.80348905  0.11303509  0.04577743    -0.27200
C854        C  0.78996065  0.11238408  0.08901971     0.18900
C855        C  0.74128839  0.23378763  0.10794114     0.12900
C856        C  0.79098899  0.24137559  0.02489887    -0.11500
H857        H  0.81858251  0.15683377  0.99437063     0.13100
C858        C  0.78615374  0.06809293  0.11175375    -0.22300
H859        H  0.76057906  0.15205824  0.14225217     0.08800
C860        C  0.69201250  0.22937345  0.11282204     0.05100
C861        C  0.66621097  0.26330696  0.13639794    -0.19600
C862        C  0.68799624  0.30188874  0.15525204    -0.11900
C863        C  0.73610581  0.30862630  0.14669194     0.13800
C864        C  0.76226396  0.27431754  0.12362379    -0.22300
C865        C  0.66551822  0.18861934  0.09480718    -0.05400
H866        H  0.62943710  0.25769892  0.14274644     0.15400
C867        C  0.76105332  0.35109658  0.16259210    -0.15500
H868        H  0.79969955  0.27845145  0.11944924     0.09700
H869        H  0.74877835  0.06299072  0.11973876     0.07500
H870        H  0.80762586  0.06969726  0.14183916     0.08700
H871        H  0.79897092  0.03792448  0.09209611     0.07800
H872        H  0.81232906  0.26703670  0.04317071     0.02700
H873        H  0.75421009  0.25513533  0.02106700     0.03100
H874        H  0.80620746  0.23637955  0.99254416     0.06600
H875        H  0.63560515  0.20091195  0.07427336     0.05600
H876        H  0.65132522  0.16945917  0.12146980    -0.00100
H877        H  0.68752517  0.16452244  0.07479236     0.01300
H878        H  0.79014980  0.34140508  0.18517321     0.05000
H879        H  0.73699835  0.37655740  0.17903675     0.06900
H880        H  0.77608403  0.36810179  0.13501488     0.07800
C881        C  0.20404602  0.20909605  0.08712168    -0.21800
C882        C  0.25166158  0.20466465  0.07532453     0.10200
C883        C  0.26380912  0.17114723  0.04304030     0.10600
C884        C  0.22815558  0.14536586  0.02238356    -0.16700
C885        C  0.17969529  0.15507311  0.02918101    -0.27200
C886        C  0.16785317  0.18593905  0.06403156     0.18900
C887        C  0.28770228  0.23525167  0.09713125     0.12900
C888        C  0.31358629  0.16506548  0.02715993    -0.11500
H889        H  0.23800515  0.12100985  0.99670951     0.13100
C890        C  0.11807667  0.19742073  0.07737679    -0.22300
H891        H  0.19462219  0.23255871  0.11358911     0.08800
C892        C  0.28392591  0.28412910  0.09701082     0.05100
C893        C  0.31558241  0.31086237  0.12237513    -0.19600
C894        C  0.35188416  0.29016892  0.14704456    -0.11900
C895        C  0.35927430  0.24181043  0.14232118     0.13800
C896        C  0.32626974  0.21508267  0.11920209    -0.22300
C897        C  0.24631061  0.30842978  0.07066699    -0.05400
H898        H  0.30959236  0.34778734  0.12542493     0.15400
C899        C  0.40077781  0.21717679  0.16325980    -0.15500
H900        H  0.32996210  0.17796555  0.11986627     0.09700
H901        H  0.11037066  0.23477428  0.07394183     0.07500
H902        H  0.11433899  0.18931703  0.11153280     0.08700
H903        H  0.09125770  0.17809158  0.05896495     0.07800
H904        H  0.33734897  0.15067068  0.05218159     0.02700
H905        H  0.32656888  0.19870147  0.01765255     0.03100
H906        H  0.31562216  0.14095240  0.99875710     0.06600
H907        H  0.25049600  0.34629507  0.07214985     0.05600
H908        H  0.21075567  0.30182316  0.08255974    -0.00100
H909        H  0.24862618  0.29628397  0.03663223     0.01300
H910        H  0.38813840  0.19350111  0.18722521     0.05000
H911        H  0.42561474  0.24131570  0.17938253     0.06900
H912        H  0.42077402  0.19680442  0.13850015     0.07800
C913        C  0.29029124  0.46744179  0.26972717    -0.21800
C914        C  0.30261291  0.47154309  0.31352577     0.10200
C915        C  0.34629022  0.45161839  0.32749950     0.10600
C916        C  0.37403166  0.42517103  0.29827314    -0.16700
C917        C  0.35826949  0.41579620  0.25589358    -0.27200
C918        C  0.31714057  0.43956479  0.24088746     0.18900
C919        C  0.26507403  0.48852382  0.34395854     0.12900
C920        C  0.36311265  0.45469560  0.37356751    -0.11500
H921        H  0.40550100  0.40717200  0.31007652     0.13100
C922        C  0.29835270  0.43192828  0.19578100    -0.22300
H923        H  0.25687177  0.48243897  0.25881657     0.08800
C924        C  0.24051902  0.53147894  0.34002513     0.05100
C925        C  0.19802461  0.54007473  0.36190384    -0.19600
C926        C  0.17791139  0.50607677  0.38592798    -0.11900
C927        C  0.20450557  0.46511919  0.39296170     0.13800
C928        C  0.24776450  0.45697685  0.37232500    -0.22300
C929        C  0.25612553  0.56770591  0.31067556    -0.05400
H930        H  0.17752781  0.57127734  0.35562017     0.15400
C931        C  0.18520861  0.42839904  0.41959817    -0.15500
H932        H  0.26604423  0.42392290  0.37539391     0.09700
H933        H  0.26568751  0.45298229  0.18967637     0.07500
H934        H  0.28964534  0.39527486  0.19004126     0.08700
H935        H  0.32500317  0.44178161  0.17267295     0.07800
H936        H  0.36669996  0.41958780  0.38622006     0.02700
H937        H  0.33878431  0.47542296  0.39436866     0.03100
H938        H  0.39796445  0.47082433  0.37585923     0.06600
H939        H  0.26013868  0.60080313  0.32906978     0.05600
H940        H  0.22900174  0.57278033  0.28497247    -0.00100
H941        H  0.29026052  0.55860129  0.29545116     0.01300
H942        H  0.15130089  0.41652239  0.40544498     0.05000
H943        H  0.17919691  0.44262158  0.45254991     0.06900
H944        H  0.20995637  0.39813569  0.42161342     0.07800
C945        C  0.52978105  0.75693321  0.81857297    -0.21800
C946        C  0.54614904  0.71160155  0.82495440     0.10200
C947        C  0.58838381  0.69541293  0.80602085     0.10600
C948        C  0.61323761  0.72459488  0.78091077    -0.16700
C949        C  0.59625342  0.76941231  0.77324804    -0.27200
C950        C  0.55441039  0.78617167  0.79292401     0.18900
C951        C  0.51889214  0.68198885  0.85217573     0.12900
C952        C  0.60669796  0.64703047  0.81144431    -0.11500
H953        H  0.64468695  0.71136220  0.76491252     0.13100
C954        C  0.53427863  0.83373328  0.78515774    -0.22300
H955        H  0.49703209  0.76906967  0.83300085     0.08800
C956        C  0.51609751  0.69108363  0.89666719     0.05100
C957        C  0.48682833  0.66466604  0.92069445    -0.19600
C958        C  0.45845449  0.63087518  0.90095928    -0.11900
C959        C  0.46546195  0.61833841  0.85731235     0.13800
C960        C  0.49515162  0.64451635  0.83328503    -0.22300
C961        C  0.54293272  0.72943905  0.91869843    -0.05400
H962        H  0.48350551  0.67304156  0.95456889     0.15400
C963        C  0.44242431  0.57759557  0.83537740    -0.15500
H964        H  0.49883373  0.63635284  0.79939852     0.09700
H965        H  0.55931364  0.85978429  0.79753760     0.07500
H966        H  0.50027040  0.84038556  0.80160032     0.08700
H967        H  0.52791383  0.83798572  0.75038717     0.07800
H968        H  0.58338245  0.62250164  0.79392635     0.02700
H969        H  0.60720351  0.63963768  0.84586802     0.03100
H970        H  0.64298415  0.64180993  0.79917688     0.06600
H971        H  0.53587357  0.73213461  0.95347635     0.05600
H972        H  0.53200828  0.76299533  0.90539958    -0.00100
H973        H  0.58139377  0.72319323  0.91428481     0.01300
H974        H  0.41877916  0.58929551  0.80889045     0.05000
H975        H  0.42179050  0.55783928  0.85766593     0.06900
H976        H  0.47017476  0.55376836  0.82192710     0.07800
C977        C  0.23339659  0.78156450  0.07937397    -0.21800
C978        C  0.28281859  0.78063910  0.08328262     0.10200
C979        C  0.30503262  0.81479892  0.10914067     0.10600
C980        C  0.27715670  0.84833466  0.13129377    -0.16700
C981        C  0.22755317  0.84715336  0.13002561    -0.27200
C982        C  0.20556217  0.81339530  0.10355156     0.18900
C983        C  0.31021739  0.74350720  0.05985904     0.12900
C984        C  0.35784688  0.81391766  0.11584790    -0.11500
H985        H  0.29414086  0.87270025  0.15324473     0.13100
C986        C  0.15284304  0.80920730  0.10281625    -0.22300
H987        H  0.21652652  0.75565546  0.05899312     0.08800
C988        C  0.30890303  0.69683832  0.07085091     0.05100
C989        C  0.33020916  0.66247776  0.04400310    -0.19600
C990        C  0.35381502  0.67384157  0.00715307    -0.11900
C991        C  0.35721258  0.72096687  0.99760709     0.13800
C992        C  0.33536043  0.75500306  0.02406388    -0.22300
C993        C  0.28485366  0.68330033  0.11072988    -0.05400
H994        H  0.32667359  0.62658293  0.05075709     0.15400
C995        C  0.38217953  0.73584135  0.95861451    -0.15500
H996        H  0.33627667  0.79081694  0.01584484     0.09700
H997        H  0.14060487  0.80198834  0.13529111     0.07500
H998        H  0.14125857  0.78098743  0.08042978     0.08700
H999        H  0.13599376  0.84177430  0.09230030     0.07800
H1000       H  0.37543332  0.81831142  0.08500391     0.02700
H1001       H  0.36976487  0.78053173  0.12912728     0.03100
H1002       H  0.36924449  0.84189551  0.13859966     0.06600
H1003       H  0.28835963  0.64564631  0.11521915     0.05600
H1004       H  0.24668818  0.69280840  0.10885066    -0.00100
H1005       H  0.30106687  0.70121124  0.13915755     0.01300
H1006       H  0.36507760  0.72173888  0.92891615     0.05000
H1007       H  0.41956570  0.72395689  0.96022046     0.06900
H1008       H  0.38153841  0.77388575  0.95656435     0.07800
C1009       C  0.68666836  0.72285419  0.05241639    -0.21800
C1010       C  0.73209317  0.70759996  0.06477234     0.10200
C1011       C  0.74536804  0.66058109  0.05818172     0.10600
C1012       C  0.71529177  0.63136280  0.03436070    -0.16700
C1013       C  0.67296978  0.64858070  0.01624360    -0.27200
C1014       C  0.65663923  0.69343228  0.02879490     0.18900
C1015       C  0.76742606  0.74130272  0.08038082     0.12900
C1016       C  0.79288652  0.64216113  0.07333473    -0.11500
H1017       H  0.72776484  0.59684183  0.02516209     0.13100
C1018       C  0.60888493  0.71175143  0.01479611    -0.22300
H1019       H  0.67570081  0.75844418  0.05890107     0.08800
C1020       C  0.79759796  0.76150961  0.05157601     0.05100
C1021       C  0.83988102  0.78070067  0.06715909    -0.19600
C1022       C  0.85281989  0.77954121  0.11078041    -0.11900
C1023       C  0.81898350  0.76527258  0.13990192     0.13800
C1024       C  0.77671010  0.74633772  0.12433213    -0.22300
C1025       C  0.78701433  0.75932958  0.00409169    -0.05400
H1026       H  0.86562299  0.79101984  0.04458090     0.15400
C1027       C  0.82929028  0.76546871  0.18724697    -0.15500
H1028       H  0.75288674  0.73155278  0.14628309     0.09700
H1029       H  0.61303411  0.74128464  0.99392386     0.07500
H1030       H  0.58852523  0.72350269  0.04335264     0.08700
H1031       H  0.58835895  0.68495149  0.99714518     0.07800
H1032       H  0.79623207  0.64716705  0.10865330     0.02700
H1033       H  0.82137089  0.66057058  0.05807656     0.03100
H1034       H  0.79781832  0.60482464  0.06521198     0.06600
H1035       H  0.81434302  0.77636008  0.98597477     0.05600
H1036       H  0.75246782  0.77701235  0.99748324    -0.00100
H1037       H  0.78557347  0.72291264  0.99222272     0.01300
H1038       H  0.83419134  0.80146125  0.19906552     0.05000
H1039       H  0.79977103  0.75173437  0.20514529     0.06900
H1040       H  0.86123445  0.74369244  0.19405689     0.07800
C1041       C  0.73423105  0.48342905  0.87111357    -0.21800
C1042       C  0.72520537  0.49135469  0.82737215     0.10200
C1043       C  0.68422194  0.51813568  0.81649372     0.10600
C1044       C  0.65588876  0.53774474  0.84933445    -0.16700
C1045       C  0.67022987  0.53707282  0.89273717    -0.27200
C1046       C  0.70873294  0.50742143  0.90378109     0.18900
C1047       C  0.75972491  0.47168678  0.79483083     0.12900
C1048       C  0.67123236  0.53095434  0.77129905    -0.11500
H1049       H  0.62584353  0.55951987  0.84059764     0.13100
C1050       C  0.72551379  0.50372825  0.94957618    -0.22300
H1051       H  0.76406682  0.46123114  0.87982212     0.08800
C1052       C  0.80921981  0.47729849  0.79970473     0.05100
C1053       C  0.84055238  0.45053688  0.77384020    -0.19600
C1054       C  0.82406669  0.42077305  0.74074898    -0.11900
C1055       C  0.77491004  0.42155363  0.73116283     0.13800
C1056       C  0.74352723  0.44451392  0.75963412    -0.22300
C1057       C  0.83042083  0.51120355  0.83175457    -0.05400
H1058       H  0.87812749  0.45181713  0.78075595     0.15400
C1059       C  0.75443248  0.39888082  0.69101872    -0.15500
H1060       H  0.70600183  0.44117551  0.75409002     0.09700
H1061       H  0.73649794  0.53783819  0.96264056     0.07500
H1062       H  0.75626627  0.47931832  0.95249170     0.08700
H1063       H  0.69672272  0.49113987  0.96905476     0.07800
H1064       H  0.63715028  0.51556535  0.76148413     0.02700
H1065       H  0.69822266  0.52045742  0.74759907     0.03100
H1066       H  0.66726676  0.56890047  0.76987809     0.06600
H1067       H  0.85445935  0.53364918  0.81511229     0.05600
H1068       H  0.85099288  0.49240635  0.85655855    -0.00100
H1069       H  0.80361867  0.53423637  0.84753851     0.01300
H1070       H  0.73097253  0.37096949  0.69949270     0.05000
H1071       H  0.78204011  0.38452547  0.66925613     0.06900
H1072       H  0.73339708  0.42484037  0.67294902     0.07800
C1073       C  0.42643030  0.38970049  0.84490056    -0.21800
C1074       C  0.42912580  0.41683405  0.80893011     0.10200
C1075       C  0.47248575  0.43611996  0.79944238     0.10600
C1076       C  0.51278329  0.42547484  0.82460437    -0.16700
C1077       C  0.51116535  0.39435046  0.85774305    -0.27200
C1078       C  0.46711817  0.37762039  0.86902081     0.18900
C1079       C  0.38838302  0.41808924  0.77810051     0.12900
C1080       C  0.47688617  0.46508148  0.76093586    -0.11500
H1081       H  0.54668137  0.43799078  0.81594221     0.13100
C1082       C  0.46364516  0.34404326  0.90414293    -0.22300
H1083       H  0.39301618  0.37493636  0.85198041     0.08800
C1084       C  0.38213932  0.38170174  0.74753896     0.05100
C1085       C  0.34236502  0.38225737  0.72000474    -0.19600
C1086       C  0.30700370  0.41706265  0.72359993    -0.11900
C1087       C  0.31268150  0.45296190  0.75523879     0.13800
C1088       C  0.35410220  0.45382797  0.78105072    -0.22300
C1089       C  0.41662253  0.34126057  0.74517211    -0.05400
H1090       H  0.33771189  0.35409525  0.69668044     0.15400
C1091       C  0.27449907  0.48858167  0.76530585    -0.15500
H1092       H  0.35839655  0.48113155  0.80532300     0.09700
H1093       H  0.42697747  0.33253080  0.90734544     0.07500
H1094       H  0.47460268  0.36051689  0.93521526     0.08700
H1095       H  0.48667441  0.31316655  0.89720776     0.07800
H1096       H  0.45216892  0.49540106  0.76342910     0.02700
H1097       H  0.46816694  0.44444849  0.73133622     0.03100
H1098       H  0.51323663  0.47760846  0.75814566     0.06600
H1099       H  0.40533308  0.31495548  0.72073590     0.05600
H1100       H  0.41887317  0.32433429  0.77638114    -0.00100
H1101       H  0.45209931  0.35310365  0.73727889     0.01300
H1102       H  0.26604718  0.48797701  0.79980293     0.05000
H1103       H  0.24136079  0.48220525  0.74711112     0.06900
H1104       H  0.28686802  0.52324711  0.75828099     0.07800
C1105       C  0.59018486  0.23846731  0.66267661    -0.21800
C1106       C  0.55529482  0.27260698  0.67148968     0.10200
C1107       C  0.52333780  0.28593390  0.63868582     0.10600
C1108       C  0.52650095  0.26408399  0.59804185    -0.16700
C1109       C  0.56110406  0.22967223  0.58933306    -0.27200
C1110       C  0.59373047  0.21707771  0.62182816     0.18900
C1111       C  0.55487515  0.29487690  0.71491624     0.12900
C1112       C  0.48597997  0.32296013  0.64636942    -0.11500
H1113       H  0.50219489  0.27406245  0.57254588     0.13100
C1114       C  0.63340213  0.18248731  0.61413839    -0.22300
H1115       H  0.61529625  0.22895969  0.68773716     0.08800
C1116       C  0.52997048  0.27632077  0.74845166     0.05100
C1117       C  0.53630833  0.29445173  0.79044894    -0.19600
C1118       C  0.56797564  0.32971805  0.79956956    -0.11900
C1119       C  0.59170809  0.34924966  0.76578878     0.13800
C1120       C  0.58450960  0.33182943  0.72375548    -0.22300
C1121       C  0.49840585  0.23616392  0.74012737    -0.05400
H1122       H  0.51833999  0.27954804  0.81656875     0.15400
C1123       C  0.62618774  0.38717969  0.77314584    -0.15500
H1124       H  0.60380643  0.34578523  0.69792506     0.09700
H1125       H  0.63030059  0.15394812  0.63623718     0.07500
H1126       H  0.66765726  0.19908103  0.62070996     0.08700
H1127       H  0.63356850  0.16812028  0.58078824     0.07800
H1128       H  0.50222807  0.35503012  0.65911854     0.02700
H1129       H  0.46083056  0.31093286  0.66955438     0.03100
H1130       H  0.46583270  0.33095832  0.61654265     0.06600
H1131       H  0.48174607  0.22571927  0.76991021     0.05600
H1132       H  0.51930918  0.20619866  0.72681698    -0.00100
H1133       H  0.46990013  0.24547323  0.71686090     0.01300
H1134       H  0.66150395  0.37458857  0.76238943     0.05000
H1135       H  0.62952251  0.39901061  0.80720095     0.06900
H1136       H  0.61463106  0.41729279  0.75434275     0.07800
C1137       C  0.57650005  0.55769214  0.31829117    -0.21800
C1138       C  0.57414998  0.52682345  0.35152534     0.10200
C1139       C  0.53179297  0.50398337  0.35749710     0.10600
C1140       C  0.49187139  0.51498512  0.33197368    -0.16700
C1141       C  0.49313356  0.54869520  0.30118023    -0.27200
C1142       C  0.53641191  0.56904335  0.29311262     0.18900
C1143       C  0.61441763  0.52410421  0.38276919     0.12900
C1144       C  0.52829343  0.46940820  0.39178417    -0.11500
H1145       H  0.45855306  0.49962891  0.33783807     0.13100
C1146       C  0.53947940  0.60524712  0.26023318    -0.22300
H1147       H  0.60916273  0.57503794  0.31376863     0.08800
C1148       C  0.65650325  0.49879779  0.37355049     0.05100
C1149       C  0.69590297  0.50315754  0.40153314    -0.19600
C1150       C  0.69417102  0.53235673  0.43846739    -0.11900
C1151       C  0.65140070  0.55652380  0.44824208     0.13800
C1152       C  0.61197784  0.55173153  0.42052032    -0.22300
C1153       C  0.66002906  0.46816447  0.33368437    -0.05400
H1154       H  0.72893845  0.48569772  0.39323427     0.15400
C1155       C  0.64749326  0.58828590  0.48735017    -0.15500
H1156       H  0.57958363  0.57125589  0.42730567     0.09700
H1157       H  0.53139167  0.59019069  0.22793539     0.07500
H1158       H  0.57536393  0.61935475  0.25963388     0.08700
H1159       H  0.51402963  0.63419613  0.26725017     0.07800
H1160       H  0.53507791  0.48615947  0.42375353     0.02700
H1161       H  0.55473820  0.44091832  0.38624421     0.03100
H1162       H  0.49276249  0.45441870  0.39183513     0.06600
H1163       H  0.69523583  0.45045995  0.33136902     0.05600
H1164       H  0.65420218  0.48888581  0.30485162    -0.00100
H1165       H  0.63289786  0.44151276  0.33398992     0.01300
H1166       H  0.61127238  0.60359712  0.49063135     0.05000
H1167       H  0.67212414  0.61692498  0.48536389     0.06900
H1168       H  0.65616983  0.56888085  0.51646147     0.07800
C1169       C  0.48609753  0.65053584  0.50994628    -0.21800
C1170       C  0.45370868  0.67187162  0.48200741     0.10200
C1171       C  0.42906770  0.71264775  0.49560563     0.10600
C1172       C  0.43621059  0.73027404  0.53761644    -0.16700
C1173       C  0.46745922  0.70802671  0.56599918    -0.27200
C1174       C  0.49375388  0.66857847  0.55164736     0.18900
C1175       C  0.44630570  0.65090561  0.43859100     0.12900
C1176       C  0.39545219  0.73747313  0.46576305    -0.11500
H1177       H  0.41619252  0.76046054  0.54898199     0.13100
C1178       C  0.53060373  0.64618921  0.58006175    -0.22300
H1179       H  0.50537252  0.61962629  0.49902116     0.08800
C1180       C  0.47998064  0.65432147  0.40649785     0.05100
C1181       C  0.47064274  0.63517851  0.36544844    -0.19600
C1182       C  0.42911348  0.61147894  0.35596951    -0.11900
C1183       C  0.39615097  0.60682455  0.38876628     0.13800
C1184       C  0.40493776  0.62706412  0.42951093    -0.22300
C1185       C  0.52516579  0.67921390  0.41523685    -0.05400
H1186       H  0.49536137  0.64006482  0.34039179     0.15400
C1187       C  0.35191390  0.58010728  0.38238762    -0.15500
H1188       H  0.37951383  0.62388053  0.45456558     0.09700
H1189       H  0.55699528  0.67182360  0.59071789     0.07500
H1190       H  0.54951276  0.61706584  0.56308560     0.08700
H1191       H  0.51396819  0.63249827  0.60839271     0.07800
H1192       H  0.36633520  0.71472984  0.45544740     0.02700
H1193       H  0.41458240  0.74762528  0.43717109     0.03100
H1194       H  0.37949922  0.76901768  0.48135677     0.06600
H1195       H  0.54706047  0.67964130  0.38624051     0.05600
H1196       H  0.54639076  0.66184077  0.44050350    -0.00100
H1197       H  0.51698356  0.71536844  0.42600128     0.01300
H1198       H  0.35056385  0.55423104  0.40740755     0.05000
H1199       H  0.35025494  0.56136984  0.35092630     0.06900
H1200       H  0.32066838  0.60386446  0.38559812     0.07800
loop_ 
_geom_bond_atom_site_label_1 
_geom_bond_atom_site_label_2 
_geom_bond_distance 
_geom_bond_site_symmetry_2 
_ccdc_geom_bond_type 
N1            C5   1.358       .  A
N1            C2   1.358       .  A
N1         C1141   1.442       .  S
C2            C3   1.382       .  A
C2         C1182   1.486       .  S
C3            C4   1.377       .  A
C3            H6   1.082       .  S
C4            C5   1.384       .  A
C4            H7   1.082       .  S
C5           C71   1.476       .  S
N8           C12   1.360       .  A
N8            C9   1.355       .  A
N8         C1077   1.443       .  S
C9           C10   1.378       .  A
C9         C1118   1.478       .  S
C10          C11   1.375       .  A
C10          H13   1.082       .  S
C11          C12   1.385       .  A
C11          H14   1.082       .  S
C12          C66   1.475       .  S
N15          C19   1.363       .  A
N15          C16   1.370       .  A
N15          C65   1.448       .  S
C16          C17   1.384       .  A
C16        C1045   1.498       .  S
C17          C18   1.361       .  A
C17          H20   1.082       .  S
C18          C19   1.377       .  A
C18          H21   1.083       .  S
C19        C1013   1.481   1_556  S
N22          C26   1.357       .  A
N22          C23   1.360       .  A
N22          C67   1.448       .  S
C23          C24   1.383       .  A
C23         C990   1.487   1_556  S
C24          C25   1.371       .  A
C24          H27   1.083       .  S
C25          C26   1.383       .  A
C25          H28   1.082       .  S
C26         C958   1.487       .  S
N29          C33   1.370       .  A
N29          C30   1.366       .  A
N29          C79   1.451       .  S
C30          C31   1.381       .  A
C30         C917   1.493       .  S
C31          C32   1.362       .  A
C31          H34   1.083       .  S
C32          C33   1.384       .  A
C32          H35   1.082       .  S
C33         C894   1.498       .  S
N36          C40   1.361       .  A
N36          C37   1.362       .  A
N36          C86   1.449       .  S
C37          C38   1.385       .  A
C37         C862   1.490       .  S
C38          C39   1.372       .  A
C38          H41   1.083       .  S
C39          C40   1.382       .  A
C39          H42   1.083       .  S
C40         C830   1.484       .  S
Zr43         O44   2.442       .  S
Zr43         O45   2.461       .  S
Zr43         O46   2.459       .  S
Zr43         O49   2.432       .  S
Zr43         O51   2.386   1_556  S
Zr43         O52   2.388   1_556  S
Zr43         O53   2.412   1_556  S
Zr43         O54   2.412   1_556  S
O44         H100   0.990       .  S
O44         H108   0.990       .  S
O45          C65   1.288       .  A
O46          C67   1.291       .  A
O47         Zr57   2.436   1_556  S
O47          C66   1.288       .  A
O48         Zr56   2.437       .  S
O48          C67   1.284   1_554  A
O49          C66   1.283       .  A
O50         Zr58   2.441       .  S
O50          C65   1.285   1_554  A
O51         Zr56   2.408       .  S
O51         Zr58   2.386       .  S
O52         Zr57   2.396       .  S
O52         Zr58   2.369       .  S
O52          H87   0.966       .  S
O53         Zr56   2.400       .  S
O53         Zr73   2.405       .  S
O53          H90   0.965       .  S
O54         Zr57   2.397       .  S
O54         Zr73   2.398       .  S
Zr55         O80   2.441       .  S
Zr55         O74   2.466       .  S
Zr55         O82   2.435       .  S
Zr55         O70   2.428       .  S
Zr55         O61   2.404       .  S
Zr55         O62   2.415       .  S
Zr55         O63   2.376       .  S
Zr55         O64   2.382       .  S
Zr56         O75   2.437       .  S
Zr56         O68   2.434       .  S
Zr56         O69   2.448       .  S
Zr56         O62   2.386       .  S
Zr56         O63   2.388       .  S
Zr57         O59   2.435       .  S
Zr57         O81   2.438       .  S
Zr57         O83   2.463       .  S
Zr57         O61   2.379       .  S
Zr57         O64   2.392       .  S
Zr58         O84   2.436       .  S
Zr58         O85   2.438       .  S
Zr58         O60   2.438       .  S
Zr58         O61   2.397       .  S
Zr58         O62   2.409       .  S
O59          H96   0.990       .  S
O60          H91   0.990       .  S
O60         H105   0.990       .  S
O62          H88   0.965       .  S
O63         Zr73   2.376       .  S
O64         Zr73   2.382       .  S
O64          H89   0.967       .  S
O68         H104   0.988       .  S
O69          C71   1.288       .  A
O70          C71   1.283       .  A
O72         Zr73   2.440   1_556  S
O72         H101   0.990       .  S
Zr73         O76   2.436       .  S
Zr73         O77   2.436       .  S
Zr73         O78   2.448       .  S
O74          C79   1.293       .  A
O75          H92   0.990       .  S
O75         H107   0.990       .  S
O76          H93   0.990       .  S
O77          H97   0.990       .  S
O77         H106   0.990       .  S
O78          C79   1.285       .  A
O80          H99   0.990       .  S
O80         H103   0.989       .  S
O81          H95   0.990       .  S
O81         H102   0.990       .  S
O82          C86   1.286       .  A
O83          C86   1.290       .  A
O84          H94   0.991       .  S
O85          H98   0.990       .  S
N109        C113   1.355       .  A
N109        C110   1.356       .  A
N109       C1109   1.435       .  S
C110        C111   1.380       .  A
C110        C789   1.484       .  S
C111        C112   1.374       .  A
C111        H114   1.082       .  S
C112        C113   1.383       .  A
C112        H115   1.083       .  S
C113        C173   1.472       .  S
N116        C120   1.356       .  A
N116        C117   1.362       .  A
N116       C1173   1.438       .  S
C117        C118   1.384       .  A
C117        C766   1.497       .  S
C118        C119   1.376       .  A
C118        H121   1.081       .  S
C119        C120   1.381       .  A
C119        H122   1.081       .  S
C120        C187   1.473       .  S
N123        C127   1.368       .  A
N123        C124   1.362       .  A
N123        C725   1.465       .  S
C124        C125   1.375       .  A
C124        C949   1.475       .  S
C125        C126   1.358       .  A
C125        H128   1.083       .  S
C126        C127   1.390       .  A
C126        H129   1.082       .  S
C127        C179   1.488       .  S
N130        C134   1.360       .  A
N130        C131   1.358       .  A
N130        C661   1.441       .  S
C131        C132   1.379       .  A
C131        C702   1.479       .  S
C132        C133   1.372       .  A
C132        H135   1.082       .  S
C133        C134   1.386       .  A
C133        H136   1.082       .  S
C134        C194   1.483       .  S
N137        C141   1.367       .  A
N137        C138   1.372       .  A
N137        C638   1.445       .  S
C138        C139   1.387       .  A
C138        C821   1.513       .  S
C139        C140   1.358       .  A
C139        H142   1.082       .  S
C140        C141   1.372       .  A
C140        H143   1.073       .  S
C141        C174   1.482       .  S
N144        C148   1.368       .  A
N144        C145   1.363       .  A
N144        C574   1.450       .  S
C145        C146   1.378       .  A
C145        C597   1.484       .  S
C146        C147   1.368       .  A
C146        H149   1.082       .  S
C147        C148   1.386       .  A
C147        H150   1.083       .  S
C148        C175   1.485       .  S
Zr151       O152   2.433       .  S
Zr151       O153   2.468       .  S
Zr151       O154   2.461       .  S
Zr151       O157   2.443       .  S
Zr151       O159   2.392       .  S
Zr151       O160   2.387       .  S
Zr151       O161   2.420   1_545  S
Zr151       O162   2.426   1_545  S
O152        H208   0.991       .  S
O152        H216   0.987       .  S
O153        C173   1.286       .  A
O154        C175   1.284       .  A
O155       Zr165   2.454   1_545  S
O155        C174   1.284       .  A
O156       Zr164   2.447   1_545  S
O156        C175   1.290       .  A
O157        C174   1.282       .  A
O158       Zr166   2.398       .  S
O158        C173   1.276       .  A
O159       Zr164   2.404   1_545  S
O159       Zr166   2.388       .  S
O160       Zr165   2.397   1_545  S
O160       Zr166   2.378       .  S
O160        H195   0.967       .  S
O161       Zr164   2.408       .  S
O161       Zr181   2.381       .  S
O161        H198   0.961       .  S
O162       Zr165   2.389       .  S
O162       Zr181   2.406       .  S
Zr163       O188   2.440       .  S
Zr163       O182   2.466       .  S
Zr163       O190   2.453       .  S
Zr163       O178   2.433       .  S
Zr163       O169   2.403       .  S
Zr163       O170   2.426       .  S
Zr163       O171   2.376       .  S
Zr163       O172   2.402       .  S
Zr164       O183   2.438       .  S
Zr164       O176   2.435   1_565  S
Zr164       O177   2.478       .  S
Zr164       O170   2.394       .  S
Zr164       O171   2.398       .  S
Zr165       O167   2.433       .  S
Zr165       O189   2.440       .  S
Zr165       O191   2.434       .  S
Zr165       O169   2.394       .  S
Zr165       O172   2.399       .  S
Zr166       O192   2.434       .  S
Zr166       O193   2.432   1_545  S
Zr166       O168   2.432       .  S
Zr166       O169   2.382   1_545  S
Zr166       O170   2.374   1_545  S
O167        H204   0.990       .  S
O168        H199   0.990       .  S
O168        H213   0.989       .  S
O170        H196   0.965       .  S
O171       Zr181   2.381       .  S
O172       Zr181   2.377       .  S
O172        H197   0.967       .  S
O176        H212   0.990   1_545  S
O177        C179   1.290       .  A
O178        C179   1.284       .  A
O180       Zr181   2.436       .  S
O180        H209   0.990       .  S
Zr181       O184   2.438       .  S
Zr181       O185   2.440       .  S
Zr181       O186   2.407       .  S
O182        C187   1.286       .  A
O183        H200   0.990       .  S
O183        H215   0.990       .  S
O184        H201   0.990       .  S
O185        H205   0.989       .  S
O185        H214   0.989       .  S
O186        C187   1.278       .  A
O188        H207   0.990       .  S
O188        H211   0.989       .  S
O189        H203   0.990       .  S
O189        H210   0.990       .  S
O190        C194   1.286       .  A
O191        C194   1.285       .  A
O192        H202   0.990       .  S
O193        H206   0.991       .  S
N217        C221   1.378       .  A
N217        C218   1.375       .  A
N217        C283   1.468   1_556  S
C218        C219   1.382       .  A
C218        C885   1.512   1_556  S
C219        C220   1.357       .  A
C219        H222   1.082       .  S
C220        C221   1.378       .  A
C220        H223   1.084       .  S
C221        C542   1.501       .  S
N224        C228   1.371       .  A
N224        C225   1.369       .  A
N224        C287   1.452       .  S
C225        C226   1.382       .  A
C225        C629   1.490       .  S
C226        C227   1.353       .  A
C226        H229   1.083       .  S
C227        C228   1.379       .  A
C227        H230   1.083       .  S
C228        C981   1.481       .  S
N231        C235   1.368   1_545  A
N231        C232   1.367       .  A
N231        C295   1.448   1_545  S
C232        C233   1.379       .  A
C232        C510   1.487       .  S
C233        C234   1.363   1_545  A
C233        H236   1.083       .  S
C234        C235   1.385       .  A
C234        H237   1.081       .  S
C235        C693   1.499   1_455  S
N238        C242   1.379       .  A
N238        C239   1.369       .  A
N238        C302   1.459       .  S
C239        C240   1.378       .  A
C239       C1022   1.486       .  S
C240        C241   1.358       .  A
C240        H243   1.083       .  S
C241        C242   1.385       .  A
C241        H244   1.083       .  S
C242        C469   1.510       .  S
N245        C249   1.369       .  A
N245        C246   1.375   1_554  A
N245        C282   1.452       .  S
C246        C247   1.381       .  A
C246        C734   1.489   1_545  S
C247        C248   1.358       .  A
C247        H250   1.083       .  S
C248        C249   1.379   1_556  A
C248        H251   1.083   1_556  S
C249        C853   1.483       .  S
N252        C256   1.368       .  A
N252        C253   1.372   1_455  A
N252        C281   1.454       .  S
C253        C254   1.381       .  A
C253        C446   1.503       .  S
C254        C255   1.362       .  A
C254        H257   1.083       .  S
C255        C256   1.384   1_655  A
C255        H258   1.082   1_565  S
C256        C606   1.509   1_565  S
Zr259       O260   2.442   1_554  S
Zr259       O261   2.481   1_544  S
Zr259       O262   2.487   1_655  S
Zr259       O265   2.479       .  S
Zr259       O267   2.392   1_645  S
Zr259       O268   2.388   1_545  S
Zr259       O269   2.422   1_655  S
Zr259       O270   2.422       .  S
O260        H316   0.990       .  S
O260        H324   0.990   1_556  S
O261        C281   1.295   1_655  A
O262        C283   1.294       .  A
O263       Zr273   2.459       .  S
O263        C282   1.289   1_565  A
O264       Zr272   2.483       .  S
O264        C283   1.296       .  A
O265        C282   1.293       .  A
O266       Zr274   2.440   1_556  S
O266        C281   1.283       .  A
O267       Zr272   2.418   1_565  S
O267       Zr274   2.390       .  S
O268       Zr273   2.407       .  S
O268       Zr274   2.379   1_655  S
O268        H303   0.966   1_554  S
O269       Zr272   2.413       .  S
O269       Zr289   2.402   1_455  S
O269        H306   0.966       .  S
O270       Zr273   2.409   1_545  S
O270       Zr289   2.411       .  S
Zr271       O296   2.445       .  S
Zr271       O290   2.455       .  S
Zr271       O298   2.443   1_455  S
Zr271       O286   2.434       .  S
Zr271       O277   2.404   1_455  S
Zr271       O278   2.421       .  S
Zr271       O279   2.381   1_565  S
Zr271       O280   2.382   1_455  S
Zr272       O291   2.438       .  S
Zr272       O284   2.434   1_545  S
Zr272       O285   2.497   1_545  S
Zr272       O278   2.407   1_545  S
Zr272       O279   2.408       .  S
Zr273       O275   2.436       .  S
Zr273       O297   2.439       .  S
Zr273       O299   2.492       .  S
Zr273       O277   2.379       .  S
Zr273       O280   2.406       .  S
Zr274       O300   2.439   1_454  S
Zr274       O301   2.435       .  S
Zr274       O276   2.435   1_554  S
Zr274       O277   2.391   1_455  S
Zr274       O278   2.407       .  S
O275        H312   0.990       .  S
O276        H307   0.990       .  S
O276        H321   0.989       .  S
O278        H304   0.962       .  S
O279       Zr289   2.381   1_455  S
O280       Zr289   2.393   1_565  S
O280        H305   0.966       .  S
O284        H320   0.990   1_565  S
O285        C287   1.295       .  A
O286        C287   1.284       .  A
O288       Zr289   2.439       .  S
O288        H317   0.990       .  S
Zr289       O292   2.438   1_655  S
Zr289       O293   2.439       .  S
Zr289       O294   2.439   1_655  S
O290        C295   1.287       .  A
O291        H308   0.990       .  S
O291        H323   0.990       .  S
O292        H309   0.990       .  S
O293        H313   0.989       .  S
O293        H322   0.990       .  S
O294        C295   1.281   1_545  A
O296        H315   0.991       .  S
O296        H319   0.990       .  S
O297        H311   0.990       .  S
O297        H318   0.990       .  S
O298        C302   1.286       .  A
O299        C302   1.297       .  A
O300        H310   0.989       .  S
O301        H314   0.990       .  S
N325        C329   1.370       .  A
N325        C326   1.367       .  A
N325        C757   1.445       .  S
C326        C327   1.377       .  A
C326       C1086   1.494       .  S
C327        C328   1.367       .  A
C327        H330   1.082       .  S
C328        C329   1.386       .  A
C328        H331   1.083       .  S
C329        C395   1.490       .  S
N332        C336   1.365       .  A
N332        C333   1.362       .  A
N332        C798   1.439       .  S
C333        C334   1.379       .  A
C333       C1150   1.491       .  S
C334        C335   1.374       .  A
C334        H337   1.082       .  S
C335        C336   1.385       .  A
C335        H338   1.083       .  S
C336        C390   1.489       .  S
N339        C343   1.370       .  A
N339        C340   1.362       .  A
N339        C437   1.462       .  S
C340        C341   1.378       .  A
C340        C670   1.482       .  S
C341        C342   1.364       .  A
C341        H344   1.083       .  S
C342        C343   1.386       .  A
C342        H345   1.083       .  S
C343        C389   1.490       .  S
N346        C350   1.372       .  A
N346        C347   1.370       .  A
N346        C501   1.468       .  S
C347        C348   1.378       .  A
C347        C565   1.493       .  S
C348        C349   1.360       .  A
C348        H351   1.083       .  S
C349        C350   1.385       .  A
C349        H352   1.083       .  S
C350        C403   1.494       .  S
N353        C357   1.368       .  A
N353        C354   1.375       .  A
N353        C391   1.467       .  S
C354        C355   1.384       .  A
C354        C533   1.505       .  S
C355        C356   1.363       .  A
C355        H358   1.084       .  S
C356        C357   1.382       .  A
C356        H359   1.082       .  S
C357       C1054   1.500       .  S
N360        C364   1.369       .  A
N360        C361   1.378       .  A
N360        C410   1.470       .  S
C361        C362   1.382       .  A
C361        C478   1.510       .  S
C362        C363   1.359       .  A
C362        H365   1.082       .  S
C363        C364   1.381       .  A
C363        H366   1.083       .  S
C364        C926   1.491       .  S
Zr367       O368   2.442       .  S
Zr367       O369   2.462       .  S
Zr367       O370   2.490       .  S
Zr367       O373   2.473       .  S
Zr367       O375   2.384       .  S
Zr367       O376   2.391       .  S
Zr367       O377   2.412       .  S
Zr367       O378   2.423       .  S
O368        H424   0.990       .  S
O368        H432   0.990       .  S
O369        C389   1.293       .  A
O370        C391   1.297       .  A
O371       Zr381   2.436       .  S
O371        C390   1.287       .  A
O372       Zr380   2.471   1_655  S
O372        C391   1.290       .  A
O373        C390   1.290       .  A
O374       Zr382   2.425   1_655  S
O374        C389   1.280       .  A
O375       Zr380   2.394   1_655  S
O375       Zr382   2.392   1_655  S
O376       Zr381   2.390       .  S
O376       Zr382   2.378   1_655  S
O376        H411   0.965       .  S
O377       Zr380   2.399   1_655  S
O377       Zr397   2.403       .  S
O377        H414   0.965       .  S
O378       Zr381   2.400       .  S
O378       Zr397   2.406       .  S
Zr379       O404   2.440       .  S
Zr379       O398   2.443       .  S
Zr379       O406   2.508       .  S
Zr379       O394   2.483       .  S
Zr379       O385   2.411       .  S
Zr379       O386   2.423       .  S
Zr379       O387   2.391       .  S
Zr379       O388   2.390       .  S
Zr380       O399   2.435       .  S
Zr380       O392   2.435       .  S
Zr380       O393   2.427       .  S
Zr380       O386   2.406       .  S
Zr380       O387   2.397       .  S
Zr381       O383   2.437       .  S
Zr381       O405   2.439       .  S
Zr381       O407   2.452   1_655  S
Zr381       O385   2.396   1_655  S
Zr381       O388   2.400   1_655  S
Zr382       O408   2.436   1_455  S
Zr382       O409   2.435       .  S
Zr382       O384   2.438       .  S
Zr382       O385   2.409       .  S
Zr382       O386   2.392       .  S
O383        H420   0.990       .  S
O384        H415   0.990       .  S
O384        H429   0.990       .  S
O386        H412   0.966       .  S
O387       Zr397   2.372   1_455  S
O388       Zr397   2.385   1_455  S
O388        H413   0.966       .  S
O392        H428   0.990       .  S
O393        C395   1.286       .  A
O394        C395   1.292       .  A
O396       Zr397   2.435       .  S
O396        H425   0.990       .  S
Zr397       O400   2.436   1_655  S
Zr397       O401   2.438       .  S
Zr397       O402   2.448   1_655  S
O398        C403   1.289       .  A
O399        H416   0.990       .  S
O399        H431   0.989       .  S
O400        H417   0.990       .  S
O401        H421   0.990   1_655  S
O401        H430   0.990       .  S
O402        C403   1.283       .  A
O404        H423   0.990       .  S
O404        H427   0.990       .  S
O405        H419   0.990       .  S
O405        H426   0.990       .  S
O406        C410   1.301       .  A
O407        C410   1.289       .  A
O408        H418   0.990       .  S
O409        H422   0.990       .  S
C433        C434   1.408       .  A
C433        C438   1.414       .  A
C433        H443   1.084       .  S
C434        C435   1.415       .  A
C434        C439   1.511       .  S
C435        C436   1.415       .  A
C435        C440   1.506       .  S
C436        C437   1.412       .  A
C436        H441   1.083       .  S
C437        C438   1.417       .  A
C438        C442   1.502       .  S
C439        C444   1.417       .  A
C439        C448   1.406       .  A
C440        H456   1.109       .  S
C440        H457   1.111       .  S
C440        H458   1.111       .  S
C442        H453   1.110       .  S
C442        H454   1.107       .  S
C442        H455   1.110       .  S
C444        C445   1.417       .  A
C444        C449   1.505   1_655  S
C445        C446   1.409       .  A
C445        H450   1.082   1_655  S
C446        C447   1.417       .  A
C447        C448   1.413       .  A
C447        C451   1.505       .  S
C448        H452   1.084       .  S
C449        H459   1.111       .  S
C449        H460   1.109       .  S
C449        H461   1.110       .  S
C451        H462   1.109       .  S
C451        H463   1.110       .  S
C451        H464   1.111       .  S
C465        C466   1.407   1_655  A
C465        C470   1.417       .  A
C465        H475   1.084       .  S
C466        C467   1.416       .  A
C466        C471   1.510       .  S
C467        C468   1.412       .  A
C467        C472   1.507       .  S
C468        C469   1.411   1_455  A
C468        H473   1.084       .  S
C469        C470   1.415       .  A
C470        C474   1.497       .  S
C471        C476   1.419       .  A
C471        C480   1.404       .  A
C472        H488   1.110       .  S
C472        H489   1.108       .  S
C472        H490   1.111       .  S
C474        H485   1.103       .  S
C474        H486   1.097       .  S
C474        H487   1.110       .  S
C476        C477   1.419       .  A
C476        C481   1.505       .  S
C477        C478   1.411       .  A
C477        H482   1.083       .  S
C478        C479   1.421       .  A
C479        C480   1.411       .  A
C479        C483   1.509   1_455  S
C480        H484   1.084   1_455  S
C481        H491   1.110       .  S
C481        H492   1.110       .  S
C481        H493   1.109       .  S
C483        H494   1.111       .  S
C483        H495   1.109       .  S
C483        H496   1.106       .  S
C497        C498   1.398       .  A
C497        C502   1.415       .  A
C497        H507   1.084       .  S
C498        C499   1.412       .  A
C498        C503   1.499       .  S
C499        C500   1.409       .  A
C499        C504   1.508       .  S
C500        C501   1.411       .  A
C500        H505   1.078       .  S
C501        C502   1.433       .  A
C502        C506   1.506       .  S
C503        C508   1.413       .  A
C503        C512   1.403       .  A
C504        H520   1.110       .  S
C504        H521   1.110       .  S
C504        H522   1.111       .  S
C506        H517   1.108       .  S
C506        H518   1.111       .  S
C506        H519   1.109       .  S
C508        C509   1.412       .  A
C508        C513   1.505   1_455  S
C509        C510   1.408       .  A
C509        H514   1.084   1_455  S
C510        C511   1.413       .  A
C511        C512   1.408       .  A
C511        C515   1.501       .  S
C512        H516   1.084       .  S
C513        H523   1.111       .  S
C513        H524   1.110       .  S
C513        H525   1.110       .  S
C515        H526   1.110       .  S
C515        H527   1.111       .  S
C515        H528   1.106       .  S
C529        C530   1.408   1_455  A
C529        C534   1.412   1_455  A
C529        H539   1.084       .  S
C530        C531   1.418       .  A
C530        C535   1.515       .  S
C531        C532   1.418       .  A
C531        C536   1.507       .  S
C532        C533   1.412       .  A
C532        H537   1.084       .  S
C533        C534   1.418       .  A
C534        C538   1.505   1_655  S
C535        C540   1.421       .  A
C535        C544   1.405   1_655  A
C536        H552   1.108       .  S
C536        H553   1.111       .  S
C536        H554   1.111       .  S
C538        H549   1.111   1_455  S
C538        H550   1.110       .  S
C538        H551   1.108   1_455  S
C540        C541   1.414   1_655  A
C540        C545   1.506       .  S
C541        C542   1.405       .  A
C541        H546   1.084       .  S
C542        C543   1.423       .  A
C543        C544   1.414       .  A
C543        C547   1.506       .  S
C544        H548   1.083       .  S
C545        H555   1.111       .  S
C545        H556   1.110       .  S
C545        H557   1.108       .  S
C547        H558   1.109       .  S
C547        H559   1.111       .  S
C547        H560   1.108   1_556  S
C561        C562   1.405       .  A
C561        C566   1.411       .  A
C561        H571   1.084       .  S
C562        C563   1.415       .  A
C562        C567   1.502       .  S
C563        C564   1.407       .  A
C563        C568   1.502       .  S
C564        C565   1.404       .  A
C564        H569   1.084       .  S
C565        C566   1.420       .  A
C566        C570   1.510       .  S
C567        C572   1.417       .  A
C567        C576   1.406       .  A
C568        H584   1.109       .  S
C568        H585   1.108       .  S
C568        H586   1.107       .  S
C570        H581   1.111       .  S
C570        H582   1.107       .  S
C570        H583   1.110       .  S
C572        C573   1.408       .  A
C572        C577   1.508       .  S
C573        C574   1.403       .  A
C573        H578   1.084       .  S
C574        C575   1.416       .  A
C575        C576   1.412       .  A
C575        C579   1.501       .  S
C576        H580   1.084       .  S
C577        H587   1.111       .  S
C577        H588   1.109       .  S
C577        H589   1.111       .  S
C579        H590   1.109   1_545  S
C579        H591   1.106       .  S
C579        H592   1.109       .  S
C593        C594   1.401       .  A
C593        C598   1.403       .  A
C593        H603   1.085   1_545  S
C594        C595   1.414       .  A
C594        C599   1.490       .  S
C595        C596   1.404       .  A
C595        C600   1.501       .  S
C596        C597   1.404       .  A
C596        H601   1.085       .  S
C597        C598   1.417       .  A
C598        C602   1.504   1_545  S
C599        C604   1.408       .  A
C599        C608   1.400       .  A
C600        H616   1.103       .  S
C600        H617   1.110       .  S
C600        H618   1.111       .  S
C602        H613   1.109       .  S
C602        H614   1.111       .  S
C602        H615   1.103       .  S
C604        C605   1.406       .  A
C604        C609   1.507       .  S
C605        C606   1.414       .  A
C605        H610   1.083       .  S
C606        C607   1.423   1_545  A
C607        C608   1.407   1_565  A
C607        C611   1.503       .  S
C608        H612   1.084   1_545  S
C609        H619   1.111       .  S
C609        H620   1.111       .  S
C609        H621   1.109       .  S
C611        H622   1.107       .  S
C611        H623   1.106       .  S
C611        H624   1.111       .  S
C625        C626   1.403       .  A
C625        C630   1.409   1_545  A
C625        H635   1.084       .  S
C626        C627   1.408   1_545  A
C626        C631   1.485       .  S
C627        C628   1.402       .  A
C627        C632   1.507       .  S
C628        C629   1.408       .  A
C628        H633   1.084       .  S
C629        C630   1.417       .  A
C630        C634   1.505       .  S
C631        C636   1.413       .  A
C631        C640   1.399       .  A
C632        H648   1.110   1_565  S
C632        H649   1.110       .  S
C632        H650   1.111       .  S
C634        H645   1.109       .  S
C634        H646   1.111   1_565  S
C634        H647   1.109       .  S
C636        C637   1.406       .  A
C636        C641   1.506   1_545  S
C637        C638   1.404       .  A
C637        H642   1.082       .  S
C638        C639   1.422       .  A
C639        C640   1.404       .  A
C639        C643   1.506       .  S
C640        H644   1.085       .  S
C641        H651   1.111       .  S
C641        H652   1.110       .  S
C641        H653   1.110       .  S
C643        H654   1.110       .  S
C643        H655   1.103       .  S
C643        H656   1.111       .  S
C657        C658   1.400       .  A
C657        C662   1.403       .  A
C657        H667   1.084       .  S
C658        C659   1.414       .  A
C658        C663   1.482       .  S
C659        C660   1.404       .  A
C659        C664   1.509       .  S
C660        C661   1.402       .  A
C660        H665   1.084       .  S
C661        C662   1.413       .  A
C662        C666   1.499       .  S
C663        C668   1.412       .  A
C663        C672   1.401       .  A
C664        H680   1.111       .  S
C664        H681   1.108       .  S
C664        H682   1.111       .  S
C666        H677   1.110       .  S
C666        H678   1.109       .  S
C666        H679   1.105       .  S
C668        C669   1.405       .  A
C668        C673   1.508       .  S
C669        C670   1.406       .  A
C669        H674   1.084       .  S
C670        C671   1.409       .  A
C671        C672   1.404       .  A
C671        C675   1.498       .  S
C672        H676   1.084       .  S
C673        H683   1.111       .  S
C673        H684   1.110       .  S
C673        H685   1.108       .  S
C675        H686   1.111       .  S
C675        H687   1.111       .  S
C675        H688   1.110       .  S
C689        C690   1.402       .  A
C689        C694   1.405       .  A
C689        H699   1.083       .  S
C690        C691   1.418       .  A
C690        C695   1.492       .  S
C691        C692   1.404       .  A
C691        C696   1.507       .  S
C692        C693   1.405       .  A
C692        H697   1.082       .  S
C693        C694   1.420       .  A
C694        C698   1.506   1_655  S
C695        C700   1.417       .  A
C695        C704   1.402       .  A
C696        H712   1.110       .  S
C696        H713   1.109       .  S
C696        H714   1.111       .  S
C698        H709   1.110       .  S
C698        H710   1.110       .  S
C698        H711   1.110       .  S
C700        C701   1.412       .  A
C700        C705   1.505       .  S
C701        C702   1.404       .  A
C701        H706   1.084       .  S
C702        C703   1.415       .  A
C703        C704   1.395       .  A
C703        C707   1.510       .  S
C704        H708   1.085       .  S
C705        H715   1.111       .  S
C705        H716   1.108       .  S
C705        H717   1.109       .  S
C707        H718   1.110       .  S
C707        H719   1.107       .  S
C707        H720   1.110       .  S
C721        C722   1.396       .  A
C721        C726   1.408       .  A
C721        H731   1.085       .  S
C722        C723   1.418       .  A
C722        C727   1.506       .  S
C723        C724   1.418       .  A
C723        C728   1.504       .  S
C724        C725   1.407       .  A
C724        H729   1.083       .  S
C725        C726   1.433       .  A
C726        C730   1.505       .  S
C727        C732   1.415       .  A
C727        C736   1.406       .  A
C728        H744   1.110       .  S
C728        H745   1.110       .  S
C728        H746   1.111       .  S
C730        H741   1.110       .  S
C730        H742   1.110       .  S
C730        H743   1.098       .  S
C732        C733   1.412       .  A
C732        C737   1.507       .  S
C733        C734   1.408       .  A
C733        H738   1.084       .  S
C734        C735   1.415       .  A
C735        C736   1.415       .  A
C735        C739   1.506   1_565  S
C736        H740   1.084       .  S
C737        H747   1.111       .  S
C737        H748   1.110       .  S
C737        H749   1.111       .  S
C739        H750   1.111       .  S
C739        H751   1.111       .  S
C739        H752   1.110       .  S
C753        C754   1.406       .  A
C753        C758   1.409       .  A
C753        H763   1.084       .  S
C754        C755   1.411       .  A
C754        C759   1.491       .  S
C755        C756   1.403       .  A
C755        C760   1.507       .  S
C756        C757   1.406       .  A
C756        H761   1.084       .  S
C757        C758   1.415       .  A
C758        C762   1.504       .  S
C759        C764   1.410       .  A
C759        C768   1.404       .  A
C760        H776   1.109       .  S
C760        H777   1.110       .  S
C760        H778   1.111       .  S
C762        H773   1.110       .  S
C762        H774   1.110       .  S
C762        H775   1.106       .  S
C764        C765   1.406       .  A
C764        C769   1.506       .  S
C765        C766   1.407       .  A
C765        H770   1.081       .  S
C766        C767   1.420       .  A
C767        C768   1.407       .  A
C767        C771   1.509       .  S
C768        H772   1.084       .  S
C769        H779   1.111       .  S
C769        H780   1.109       .  S
C769        H781   1.111       .  S
C771        H782   1.105       .  S
C771        H783   1.109       .  S
C771        H784   1.111       .  S
C785        C786   1.403       .  A
C785        C790   1.406       .  A
C785        H795   1.084       .  S
C786        C787   1.409       .  A
C786        C791   1.484       .  S
C787        C788   1.404       .  A
C787        C792   1.506       .  S
C788        C789   1.404       .  A
C788        H793   1.082       .  S
C789        C790   1.414       .  A
C790        C794   1.508       .  S
C791        C796   1.412       .  A
C791        C800   1.400       .  A
C792        H808   1.110       .  S
C792        H809   1.110       .  S
C792        H810   1.111       .  S
C794        H805   1.108       .  S
C794        H806   1.111       .  S
C794        H807   1.110       .  S
C796        C797   1.406       .  A
C796        C801   1.507       .  S
C797        C798   1.403       .  A
C797        H802   1.083       .  S
C798        C799   1.414       .  A
C799        C800   1.404       .  A
C799        C803   1.505       .  S
C800        H804   1.084       .  S
C801        H811   1.111       .  S
C801        H812   1.110       .  S
C801        H813   1.110       .  S
C803        H814   1.110       .  S
C803        H815   1.110       .  S
C803        H816   1.108       .  S
C817        C818   1.406       .  A
C817        C822   1.411       .  A
C817        H827   1.081       .  S
C818        C819   1.422       .  A
C818        C823   1.512       .  S
C819        C820   1.403       .  A
C819        C824   1.511       .  S
C820        C821   1.409       .  A
C820        H825   1.084       .  S
C821        C822   1.422       .  A
C822        C826   1.500       .  S
C823        C828   1.429       .  A
C823        C832   1.411       .  A
C824        H840   1.108       .  S
C824        H841   1.110       .  S
C824        H842   1.111       .  S
C826        H837   1.111       .  S
C826        H838   1.105       .  S
C826        H839   1.109       .  S
C828        C829   1.402       .  A
C828        C833   1.513       .  S
C829        C830   1.399       .  A
C829        H834   1.085       .  S
C830        C831   1.409       .  A
C831        C832   1.405       .  A
C831        C835   1.503       .  S
C832        H836   1.076       .  S
C833        H843   1.111       .  S
C833        H844   1.107       .  S
C833        H845   1.110       .  S
C835        H846   1.109       .  S
C835        H847   1.106       .  S
C835        H848   1.111       .  S
C849        C850   1.405       .  A
C849        C854   1.406       .  A
C849        H859   1.084       .  S
C850        C851   1.413       .  A
C850        C855   1.497       .  S
C851        C852   1.410       .  A
C851        C856   1.506       .  S
C852        C853   1.408       .  A
C852        H857   1.084   1_554  S
C853        C854   1.414       .  A
C854        C858   1.504       .  S
C855        C860   1.420       .  A
C855        C864   1.404       .  A
C856        H872   1.109       .  S
C856        H873   1.110       .  S
C856        H874   1.111   1_554  S
C858        H869   1.110       .  S
C858        H870   1.109       .  S
C858        H871   1.107       .  S
C860        C861   1.404       .  A
C860        C865   1.508       .  S
C861        C862   1.402       .  A
C861        H866   1.085       .  S
C862        C863   1.417       .  A
C863        C864   1.409       .  A
C863        C867   1.506       .  S
C864        H868   1.084       .  S
C865        H875   1.110       .  S
C865        H876   1.111       .  S
C865        H877   1.107       .  S
C867        H878   1.110       .  S
C867        H879   1.109       .  S
C867        H880   1.111       .  S
C881        C882   1.408       .  A
C881        C886   1.415       .  A
C881        H891   1.084       .  S
C882        C883   1.415       .  A
C882        C887   1.511       .  S
C883        C884   1.409       .  A
C883        C888   1.509       .  S
C884        C885   1.413       .  A
C884        H889   1.084   1_554  S
C885        C886   1.423       .  A
C886        C890   1.504       .  S
C887        C892   1.423       .  A
C887        C896   1.404       .  A
C888        H904   1.107       .  S
C888        H905   1.110       .  S
C888        H906   1.111   1_554  S
C890        H901   1.110       .  S
C890        H902   1.110       .  S
C890        H903   1.099       .  S
C892        C893   1.416       .  A
C892        C897   1.507       .  S
C893        C894   1.406       .  A
C893        H898   1.083       .  S
C894        C895   1.418       .  A
C895        C896   1.406       .  A
C895        C899   1.508       .  S
C896        H900   1.082       .  S
C897        H907   1.111       .  S
C897        H908   1.108       .  S
C897        H909   1.110       .  S
C899        H910   1.110       .  S
C899        H911   1.110       .  S
C899        H912   1.110       .  S
C913        C914   1.407       .  A
C913        C918   1.408       .  A
C913        H923   1.084       .  S
C914        C915   1.417       .  A
C914        C919   1.502       .  S
C915        C916   1.408       .  A
C915        C920   1.507       .  S
C916        C917   1.408       .  A
C916        H921   1.085       .  S
C917        C918   1.416       .  A
C918        C922   1.507       .  S
C919        C924   1.419       .  A
C919        C928   1.408       .  A
C920        H936   1.111       .  S
C920        H937   1.106       .  S
C920        H938   1.108       .  S
C922        H933   1.111       .  S
C922        H934   1.109       .  S
C922        H935   1.109       .  S
C924        C925   1.409       .  A
C924        C929   1.508       .  S
C925        C926   1.408       .  A
C925        H930   1.084       .  S
C926        C927   1.411       .  A
C927        C928   1.408       .  A
C927        C931   1.504       .  S
C928        H932   1.084       .  S
C929        H939   1.110       .  S
C929        H940   1.110       .  S
C929        H941   1.108       .  S
C931        H942   1.109       .  S
C931        H943   1.109       .  S
C931        H944   1.111       .  S
C945        C946   1.404       .  A
C945        C950   1.404       .  A
C945        H955   1.084       .  S
C946        C947   1.407       .  A
C946        C951   1.481       .  S
C947        C948   1.397       .  A
C947        C952   1.499       .  S
C948        C949   1.403       .  A
C948        H953   1.084       .  S
C949        C950   1.412       .  A
C950        C954   1.506       .  S
C951        C956   1.409       .  A
C951        C960   1.404       .  A
C952        H968   1.109       .  S
C952        H969   1.105       .  S
C952        H970   1.110       .  S
C954        H965   1.108       .  S
C954        H966   1.111       .  S
C954        H967   1.109       .  S
C956        C957   1.400       .  A
C956        C961   1.507       .  S
C957        C958   1.406       .  A
C957        H962   1.082       .  S
C958        C959   1.415       .  A
C959        C960   1.403       .  A
C959        C963   1.506       .  S
C960        H964   1.083       .  S
C961        H971   1.109       .  S
C961        H972   1.108       .  S
C961        H973   1.111       .  S
C963        H974   1.110       .  S
C963        H975   1.109       .  S
C963        H976   1.110       .  S
C977        C978   1.404       .  A
C977        C982   1.405       .  A
C977        H987   1.084       .  S
C978        C979   1.412       .  A
C978        C983   1.488       .  S
C979        C980   1.406       .  A
C979        C984   1.507       .  S
C980        C981   1.408       .  A
C980        H985   1.084       .  S
C981        C982   1.411       .  A
C982        C986   1.503       .  S
C983        C988   1.416       .  A
C983        C992   1.397       .  A
C984       H1000   1.109       .  S
C984       H1001   1.111       .  S
C984       H1002   1.111       .  S
C986        H997   1.110       .  S
C986        H998   1.111       .  S
C986        H999   1.105       .  S
C988        C989   1.409       .  A
C988        C993   1.506       .  S
C989        C990   1.401       .  A
C989        H994   1.082       .  S
C990        C991   1.421   1_554  A
C991        C992   1.402   1_556  A
C991        C995   1.508       .  S
C992        H996   1.084       .  S
C993       H1003   1.111       .  S
C993       H1004   1.109       .  S
C993       H1005   1.111       .  S
C995       H1006   1.108       .  S
C995       H1007   1.105       .  S
C995       H1008   1.111       .  S
C1009      C1010   1.400       .  A
C1009      C1014   1.405       .  A
C1009      H1019   1.084       .  S
C1010      C1011   1.415       .  A
C1010      C1015   1.486       .  S
C1011      C1012   1.405       .  A
C1011      C1016   1.507       .  S
C1012      C1013   1.401       .  A
C1012      H1017   1.084       .  S
C1013      C1014   1.414       .  A
C1014      C1018   1.501       .  S
C1015      C1020   1.413       .  A
C1015      C1024   1.396       .  A
C1016      H1032   1.110       .  S
C1016      H1033   1.110       .  S
C1016      H1034   1.111       .  S
C1018      H1029   1.110   1_554  S
C1018      H1030   1.110       .  S
C1018      H1031   1.110   1_554  S
C1020      C1021   1.408       .  A
C1020      C1025   1.507       .  S
C1021      C1022   1.405       .  A
C1021      H1026   1.084       .  S
C1022      C1023   1.420       .  A
C1023      C1024   1.405       .  A
C1023      C1027   1.502       .  S
C1024      H1028   1.084       .  S
C1025      H1035   1.111   1_554  S
C1025      H1036   1.110   1_554  S
C1025      H1037   1.110   1_554  S
C1027      H1038   1.109       .  S
C1027      H1039   1.111       .  S
C1027      H1040   1.110       .  S
C1041      C1042   1.412       .  A
C1041      C1046   1.413       .  A
C1041      H1051   1.084       .  S
C1042      C1043   1.420       .  A
C1042      C1047   1.511       .  S
C1043      C1044   1.409       .  A
C1043      C1048   1.510       .  S
C1044      C1045   1.408       .  A
C1044      H1049   1.081       .  S
C1045      C1046   1.414       .  A
C1046      C1050   1.505       .  S
C1047      C1052   1.422       .  A
C1047      C1056   1.407       .  A
C1048      H1064   1.110       .  S
C1048      H1065   1.104       .  S
C1048      H1066   1.109       .  S
C1050      H1061   1.110       .  S
C1050      H1062   1.111       .  S
C1050      H1063   1.109       .  S
C1052      C1053   1.409       .  A
C1052      C1057   1.507       .  S
C1053      C1054   1.404       .  A
C1053      H1058   1.084       .  S
C1054      C1055   1.419       .  A
C1055      C1056   1.407       .  A
C1055      C1059   1.508       .  S
C1056      H1060   1.081       .  S
C1057      H1067   1.111       .  S
C1057      H1068   1.110       .  S
C1057      H1069   1.108       .  S
C1059      H1070   1.110       .  S
C1059      H1071   1.109       .  S
C1059      H1072   1.111       .  S
C1073      C1074   1.404       .  A
C1073      C1078   1.407       .  A
C1073      H1083   1.084       .  S
C1074      C1075   1.410       .  A
C1074      C1079   1.488       .  S
C1075      C1076   1.406       .  A
C1075      C1080   1.506       .  S
C1076      C1077   1.405       .  A
C1076      H1081   1.083       .  S
C1077      C1078   1.412       .  A
C1078      C1082   1.505       .  S
C1079      C1084   1.410       .  A
C1079      C1088   1.402       .  A
C1080      H1096   1.110       .  S
C1080      H1097   1.110       .  S
C1080      H1098   1.111       .  S
C1082      H1093   1.111       .  S
C1082      H1094   1.109       .  S
C1082      H1095   1.110       .  S
C1084      C1085   1.403       .  A
C1084      C1089   1.505       .  S
C1085      C1086   1.405       .  A
C1085      H1090   1.084       .  S
C1086      C1087   1.420       .  A
C1087      C1088   1.410       .  A
C1087      C1091   1.504       .  S
C1088      H1092   1.084       .  S
C1089      H1099   1.109       .  S
C1089      H1100   1.110       .  S
C1089      H1101   1.110       .  S
C1091      H1102   1.111       .  S
C1091      H1103   1.105       .  S
C1091      H1104   1.110       .  S
C1105      C1106   1.403       .  A
C1105      C1110   1.402       .  A
C1105      H1115   1.085       .  S
C1106      C1107   1.410       .  A
C1106      C1111   1.481       .  S
C1107      C1108   1.401       .  A
C1107      C1112   1.502       .  S
C1108      C1109   1.402       .  A
C1108      H1113   1.084       .  S
C1109      C1110   1.409       .  A
C1110      C1114   1.501       .  S
C1111      C1116   1.411       .  A
C1111      C1120   1.401       .  A
C1112      H1128   1.110       .  S
C1112      H1129   1.103       .  S
C1112      H1130   1.111       .  S
C1114      H1125   1.108       .  S
C1114      H1126   1.110       .  S
C1114      H1127   1.108       .  S
C1116      C1117   1.405       .  A
C1116      C1121   1.506       .  S
C1117      C1118   1.402       .  A
C1117      H1122   1.084       .  S
C1118      C1119   1.412       .  A
C1119      C1120   1.402       .  A
C1119      C1123   1.506       .  S
C1120      H1124   1.085       .  S
C1121      H1131   1.111       .  S
C1121      H1132   1.110       .  S
C1121      H1133   1.109       .  S
C1123      H1134   1.110       .  S
C1123      H1135   1.109       .  S
C1123      H1136   1.111       .  S
C1137      C1138   1.404       .  A
C1137      C1142   1.406       .  A
C1137      H1147   1.084       .  S
C1138      C1139   1.411       .  A
C1138      C1143   1.488       .  S
C1139      C1140   1.406       .  A
C1139      C1144   1.505       .  S
C1140      C1141   1.403       .  A
C1140      H1145   1.081       .  S
C1141      C1142   1.412       .  A
C1142      C1146   1.506       .  S
C1143      C1148   1.411       .  A
C1143      C1152   1.403       .  A
C1144      H1160   1.110       .  S
C1144      H1161   1.110       .  S
C1144      H1162   1.111       .  S
C1146      H1157   1.107       .  S
C1146      H1158   1.111       .  S
C1146      H1159   1.109       .  S
C1148      C1149   1.409       .  A
C1148      C1153   1.506       .  S
C1149      C1150   1.407       .  A
C1149      H1154   1.083       .  S
C1150      C1151   1.415       .  A
C1151      C1152   1.406       .  A
C1151      C1155   1.507       .  S
C1152      H1156   1.085       .  S
C1153      H1163   1.111       .  S
C1153      H1164   1.110       .  S
C1153      H1165   1.111       .  S
C1155      H1166   1.111       .  S
C1155      H1167   1.109       .  S
C1155      H1168   1.108       .  S
C1169      C1170   1.400       .  A
C1169      C1174   1.401       .  A
C1169      H1179   1.084       .  S
C1170      C1171   1.412       .  A
C1170      C1175   1.479       .  S
C1171      C1172   1.403       .  A
C1171      C1176   1.506       .  S
C1172      C1173   1.401       .  A
C1172      H1177   1.082       .  S
C1173      C1174   1.411       .  A
C1174      C1178   1.505       .  S
C1175      C1180   1.409       .  A
C1175      C1184   1.400       .  A
C1176      H1192   1.109       .  S
C1176      H1193   1.110       .  S
C1176      H1194   1.110       .  S
C1178      H1189   1.111       .  S
C1178      H1190   1.111       .  S
C1178      H1191   1.106       .  S
C1180      C1181   1.402       .  A
C1180      C1185   1.507       .  S
C1181      C1182   1.404       .  A
C1181      H1186   1.079       .  S
C1182      C1183   1.416       .  A
C1183      C1184   1.402       .  A
C1183      C1187   1.503       .  S
C1184      H1188   1.085       .  S
C1185      H1195   1.111       .  S
C1185      H1196   1.110       .  S
C1185      H1197   1.110       .  S
C1187      H1198   1.109       .  S
C1187      H1199   1.106       .  S
C1187      H1200   1.109       .  S
