geometry optimzed in LAMMPS
_audit_creation_date              2020-12-01 
_audit_creation_method            'lammps2cif' 
_symmetry_space_group_name_H-M    'P1' 
_symmetry_Int_Tables_number       1 
_symmetry_cell_setting            triclinic 
loop_ 
_symmetry_equiv_pos_as_xyz 
  x,y,z 
_cell_length_a                    36.69894917 
_cell_length_b                    34.243999040340995 
_cell_length_c                    30.94252224155302 
_cell_angle_alpha                 90.06971315282742 
_cell_angle_beta                  90.01728271325067 
_cell_angle_gamma                 89.99974430728682 
loop_ 
_atom_site_label 
_atom_site_type_symbol 
_atom_site_fract_x 
_atom_site_fract_y 
_atom_site_fract_z 
_atom_site_charge 
C1          C  0.09313768  0.99119431  0.36962010     0.03200
C2          C  0.11287567  0.30115909  0.34056535    -0.13000
C3          C  0.15107792  0.29894231  0.34316875     0.00700
C4          C  0.16943094  0.31919624  0.37606353    -0.11500
C5          C  0.14999290  0.00848116  0.40608499     0.03200
C6          C  0.11188410  0.01125524  0.40242273    -0.10900
H7          H  0.09852395  0.28541548  0.31536783     0.08800
H8          H  0.19887069  0.31746427  0.37815386     0.06300
H9          H  0.09668261  0.02905048  0.42512131     0.06200
C10         C  0.81833124  0.01062424  0.36686279     0.03200
C11         C  0.79961109  0.32415795  0.39985531    -0.13000
C12         C  0.76147556  0.32684577  0.40340676     0.00700
C13         C  0.74202687  0.01614188  0.37352330    -0.11500
C14         C  0.76037363  0.03634744  0.34073835     0.03200
C15         C  0.79852637  0.03397008  0.33793711    -0.10900
H16         H  0.81484516  0.30687729  0.42295650     0.08800
H17         H  0.71258951  0.01791704  0.37562218     0.06300
H18         H  0.81274341  0.04921313  0.31229697     0.06200
O19         O  0.25625930  0.22768858  0.20605100    -0.72900
O20         O  0.20263893  0.28835669  0.29756455    -0.73900
O21         O  0.25594439  0.22820397  0.29716074    -0.62500
O22         O  0.20366643  0.28871933  0.20543844    -0.70900
O23         O  0.15886940  0.24512010  0.20568663    -0.70400
O24         O  0.21155863  0.18419391  0.29756676    -0.61700
O25         O  0.15814518  0.24443811  0.29633186    -0.74200
O26         O  0.21159192  0.18401357  0.20507349    -0.73000
Cu27       Cu  0.23117031  0.25976435  0.25155414     1.04600
Cu28       Cu  0.18358784  0.21277764  0.25112592     1.04300
C29         C  0.24228339  0.19626079  0.19106458     0.93300
C30         C  0.17170418  0.27610588  0.31100021     0.92500
C31         C  0.24208100  0.19678622  0.31198338     0.84600
C32         C  0.17277388  0.27689387  0.19164073     0.90900
C33         C  0.31837641  0.15827747  0.38285900     0.03200
C34         C  0.29963175  0.17828731  0.35007654    -0.13000
C35         C  0.26154961  0.17521868  0.34621980     0.00700
C36         C  0.24215883  0.15224701  0.37586119    -0.11500
C37         C  0.26053120  0.13201459  0.40866534     0.03200
C38         C  0.29867812  0.13460067  0.41156235    -0.10900
H39         H  0.31484470  0.19588800  0.32726054     0.08800
H40         H  0.21274035  0.15027559  0.37360160     0.06300
H41         H  0.31297897  0.11923541  0.43705457     0.06200
C42         C  0.59320292  0.17651791  0.38068161     0.03200
C43         C  0.61283108  0.20000786  0.40975565    -0.13000
C44         C  0.65101882  0.20259757  0.40701706     0.00700
C45         C  0.66944928  0.18253873  0.37405776    -0.11500
C46         C  0.65012176  0.15975209  0.34410095     0.03200
C47         C  0.61205197  0.15661625  0.34787023    -0.10900
H48         H  0.59841495  0.21566431  0.43495702     0.08800
H49         H  0.69886440  0.18458629  0.37184626     0.06300
H50         H  0.59693304  0.13874330  0.32515710     0.06200
O51         O  0.71138325  0.31780544  0.45181012    -0.72900
O52         O  0.65873517  0.25729210  0.04402233    -0.73900
O53         O  0.71143853  0.31855130  0.04419793    -0.62500
O54         O  0.65799582  0.25745364  0.45338657    -0.70900
O55         O  0.70256738  0.21361779  0.45252783    -0.70400
O56         O  0.75622205  0.27500886  0.04349064    -0.61700
O57         O  0.70361235  0.21380636  0.04465896    -0.74200
O58         O  0.75585001  0.27388691  0.45249282    -0.73000
Cu59       Cu  0.68342766  0.28942930  0.49837310     1.04600
Cu60       Cu  0.73110010  0.24255006  0.49829965     1.04300
C61         C  0.74197248  0.30525862  0.43756694     0.93300
C62         C  0.67268243  0.22563422  0.05834385     0.92500
C63         C  0.74222473  0.30653118  0.05819179     0.84600
C64         C  0.67159504  0.22570366  0.43900470     0.90900
C65         C  0.31807278  0.16123488  0.11731309     0.03200
C66         C  0.29958218  0.17696606  0.15320168    -0.13000
C67         C  0.26150517  0.17456789  0.15663343     0.00700
C68         C  0.24190636  0.15275902  0.12604163    -0.11500
C69         C  0.26006455  0.13436393  0.09176132     0.03200
C70         C  0.29779071  0.13949441  0.08695807    -0.10900
H71         H  0.31470015  0.19135426  0.17866215     0.08800
H72         H  0.21255661  0.15018774  0.12877132     0.06300
H73         H  0.31099977  0.12720938  0.05875899     0.06200
C74         C  0.59411334  0.17745903  0.11707114     0.03200
C75         C  0.61446749  0.19870728  0.08653633    -0.13000
C76         C  0.65240931  0.20223863  0.09025632     0.00700
C77         C  0.67063555  0.18270926  0.12370650    -0.11500
C78         C  0.65092071  0.16119588  0.15443040     0.03200
C79         C  0.61273089  0.16012741  0.15190395    -0.10900
H80         H  0.60098562  0.21200065  0.05910165     0.08800
H81         H  0.70008264  0.18426048  0.12577992     0.06300
H82         H  0.59759007  0.14578032  0.17733696     0.06200
O83         O  0.75340429  0.08990260  0.20376711    -0.72900
O84         O  0.70017602  0.15100570  0.29540426    -0.73900
O85         O  0.75346829  0.09083624  0.29427340    -0.62500
O86         O  0.70071921  0.15117641  0.20281406    -0.70900
O87         O  0.65590983  0.10765801  0.20326715    -0.70400
O88         O  0.70894771  0.04691731  0.29504277    -0.61700
O89         O  0.65574999  0.10705534  0.29448019    -0.74200
O90         O  0.70849164  0.04644479  0.20300869    -0.73000
Cu91       Cu  0.72838632  0.12239439  0.24902788     1.04600
Cu92       Cu  0.68072030  0.07549505  0.24892030     1.04300
C93         C  0.73952160  0.05814133  0.18954984     0.93300
C94         C  0.66962068  0.13837622  0.30964689     0.92500
C95         C  0.73982148  0.05917883  0.30869471     0.84600
C96         C  0.67004731  0.13907916  0.18855394     0.90900
O97         O  0.25349353  0.07888872  0.04599270    -0.72900
O98         O  0.19995926  0.01747944  0.45484416    -0.73900
O99         O  0.25352260  0.07753085  0.45537210    -0.62500
O100        O  0.20030376  0.01808847  0.04755411    -0.70900
O101        O  0.15569963  0.06181449  0.04661741    -0.70800
O102        O  0.20911792  0.12156614  0.45436920    -0.61700
O103        O  0.15566110  0.06157985  0.45528080    -0.74200
O104        O  0.20872635  0.12251302  0.04646049    -0.73000
Cu105      Cu  0.22825337  0.04630981  0.50097846     1.04600
Cu106      Cu  0.18076350  0.09338765  0.50067704     1.04300
C107        C  0.23970931  0.11074179  0.06005520     0.93300
C108        C  0.16945729  0.03009190  0.44042178     0.92500
C109        C  0.23995782  0.10918994  0.44077120     0.84600
C110        C  0.16971457  0.03052173  0.06178917     0.90900
C111        C  0.09422232  0.99372584  0.13529189     0.03200
C112        C  0.11462705  0.30483645  0.16483345    -0.13000
C113        C  0.15239559  0.30059892  0.16016400     0.00700
C114        C  0.17038304  0.31986040  0.12635969    -0.11500
C115        C  0.15061788  0.00900464  0.09649354     0.03200
C116        C  0.11252213  0.01154907  0.10050676    -0.10900
H117        H  0.10124690  0.29128312  0.19219244     0.08800
H118        H  0.19972739  0.31740748  0.12342038     0.06300
H119        H  0.09713158  0.02715532  0.07619049     0.06200
C120        C  0.81806262  0.00825432  0.13200579     0.03200
C121        C  0.79750647  0.02918749  0.16284266    -0.13000
C122        C  0.75984250  0.03456366  0.15781159     0.00700
C123        C  0.74175421  0.01651913  0.12328125    -0.11500
C124        C  0.76144832  0.32847783  0.09245182     0.03200
C125        C  0.79959244  0.32657893  0.09564164    -0.10900
H126        H  0.81036284  0.04078509  0.19159958     0.08800
H127        H  0.71239474  0.01898341  0.12057070     0.06300
H128        H  0.81466672  0.31314526  0.06957135     0.06200
C129        C  0.91621157  0.30316321  0.12344667    -0.11300
C130        C  0.93583920  0.99885979  0.14546394     0.15200
C131        C  0.91628746  0.02957943  0.16526623     0.02100
C132        C  0.87866877  0.03269523  0.15877160    -0.15700
C133        C  0.85858479  0.00323290  0.13746971    -0.10500
C134        C  0.87808463  0.30338980  0.12213352     0.08800
C135        C  0.97649870  0.99749830  0.14523822     0.09900
S136        S  0.93731830  0.06486260  0.20078819    -0.24800
H137        H  0.86520573  0.05843127  0.17124343     0.20100
S138        S  0.85689019  0.25858155  0.10441399    -0.30500
H139        H  0.93066836  0.27918903  0.10832895     0.10400
C140        C  0.99612618  0.29697790  0.15703881     0.03700
C141        C  0.03415458  0.29644926  0.15259889    -0.12800
C142        C  0.05375064  0.99661284  0.14007453    -0.08500
C143        C  0.03406635  0.03148306  0.13211324     0.07100
C144        C  0.99595643  0.03083703  0.13234596    -0.13600
S145        S  0.97336597  0.25484576  0.17965900    -0.30500
H146        H  0.04865371  0.26956584  0.15896142     0.11400
S147        S  0.05539369  0.07848684  0.12484405    -0.27600
H148        H  0.98130446  0.05716163  0.12370389     0.08600
H149        H  0.82753877  0.26113496  0.13352658     0.27000
H150        H  0.00490174  0.23352083  0.19017932     0.21800
H151        H  0.08485380  0.07077284  0.15266706     0.27100
H152        H  0.96441035  0.03943082  0.21637231     0.16000
C153        C  0.41529481  0.20179612  0.12408696    -0.11300
C154        C  0.43564572  0.17138095  0.10557340     0.15200
C155        C  0.41681476  0.13884557  0.08838679     0.02100
C156        C  0.37909364  0.13580121  0.09394651    -0.15700
C157        C  0.35844337  0.16646212  0.11198864    -0.10500
C158        C  0.37718047  0.20096914  0.12466106     0.08800
C159        C  0.47625793  0.17324315  0.10696809     0.09900
S160        S  0.43895364  0.10083860  0.05758821    -0.24800
H161        H  0.36591680  0.10915287  0.08346149     0.20100
S162        S  0.35482763  0.24627458  0.13834669    -0.30500
H163        H  0.42917240  0.22708447  0.13723012     0.10400
C164        C  0.49596771  0.20618186  0.09252395     0.03700
C165        C  0.53394481  0.20715869  0.09760402    -0.12800
C166        C  0.55351716  0.17457972  0.11295862    -0.08500
C167        C  0.53365352  0.14043843  0.12392508     0.07100
C168        C  0.49558073  0.14118485  0.12347371    -0.13600
S169        S  0.47346019  0.24632289  0.06552253    -0.30500
H170        H  0.54838665  0.23360717  0.08923252     0.11400
S171        S  0.55448197  0.09375656  0.13489354    -0.27600
H172        H  0.48084517  0.11562522  0.13441065     0.08600
H173        H  0.32558324  0.24086738  0.10953643     0.27000
H174        H  0.50511858  0.26668555  0.05333890     0.21800
H175        H  0.58341890  0.09896509  0.10564178     0.27100
H176        H  0.46612120  0.12513337  0.04009755     0.16000
C177        C  0.49662379  0.15731187  0.42153618    -0.11300
C178        C  0.47592797  0.16792774  0.38524438     0.15200
C179        C  0.49395425  0.18130701  0.34776825     0.02100
C180        C  0.53200784  0.18414820  0.34750661    -0.15700
C181        C  0.55287901  0.17323467  0.38358469    -0.10500
C182        C  0.53480646  0.15928141  0.42095278     0.08800
C183        C  0.43562914  0.16491319  0.38727305     0.09900
S184        S  0.47000744  0.19505333  0.29917165    -0.24800
H185        H  0.54554061  0.19479632  0.31871162     0.20100
S186        S  0.55870666  0.14229304  0.46830666    -0.30500
H187        H  0.48290687  0.14680610  0.45028214     0.10400
C188        C  0.41783078  0.12853314  0.38421855     0.03700
C189        C  0.37958147  0.12714012  0.38398327    -0.12800
C190        C  0.35865789  0.16142510  0.38659451    -0.08500
C191        C  0.37668475  0.19777467  0.39099707     0.07100
C192        C  0.41484640  0.19912071  0.39082285    -0.13600
S193        S  0.44385828  0.08406032  0.37853845    -0.30500
H194        H  0.36582909  0.09933367  0.38060547     0.11400
S195        S  0.35271329  0.24335038  0.39786476    -0.27600
H196        H  0.42851852  0.22706472  0.39355687     0.08600
H197        H  0.58907688  0.12747025  0.44596919     0.27000
H198        H  0.41398201  0.05868474  0.37375751     0.21800
H199        H  0.32281887  0.22740102  0.42012602     0.27100
H200        H  0.44118046  0.16835629  0.30372453     0.16000
C201        C  0.99690273  0.01083148  0.32794263    -0.11300
C202        C  0.97591251  0.00025349  0.36399608     0.15200
C203        C  0.99365348  0.31970676  0.40148909     0.02100
C204        C  0.03170295  0.31675103  0.40213195    -0.15700
C205        C  0.05284079  0.99449256  0.36636186    -0.10500
C206        C  0.03505736  0.00858904  0.32885505     0.08800
C207        C  0.93560948  0.00346916  0.36159161     0.09900
S208        S  0.96935326  0.30542755  0.44964129    -0.24800
H209        H  0.04502037  0.30585744  0.43097016     0.20100
S210        S  0.05930775  0.02528991  0.28164179    -0.30500
H211        H  0.98343071  0.02146590  0.29908536     0.10400
C212        C  0.91793139  0.04004458  0.36193540     0.03700
C213        C  0.87967448  0.04158255  0.36272883    -0.12800
C214        C  0.85861694  0.00728284  0.36278846    -0.08500
C215        C  0.87653414  0.30406828  0.36021982     0.07100
C216        C  0.91466930  0.30258150  0.36029112    -0.13600
S217        S  0.94406940  0.08472710  0.36346388    -0.30500
H218        H  0.86605235  0.06958244  0.36449708     0.11400
S219        S  0.85245526  0.25834194  0.35552707    -0.27600
H220        H  0.92821656  0.27447629  0.35919380     0.08600
H221        H  0.08948555  0.04027043  0.30423877     0.27000
H222        H  0.91429626  0.11053214  0.36141673     0.21800
H223        H  0.82287884  0.27349711  0.33198708     0.27100
H224        H  0.94068695  0.33235171  0.44520674     0.16000
C225        C  0.09313791  0.99119453  0.86961980     0.03200
C226        C  0.11287575  0.30115890  0.84056541    -0.13000
C227        C  0.15107798  0.29894215  0.84316881     0.00700
C228        C  0.16943099  0.31919610  0.87606360    -0.11500
C229        C  0.14999309  0.00848125  0.90608482     0.03200
C230        C  0.11188431  0.01125553  0.90242240    -0.10900
H231        H  0.09852404  0.28541530  0.81536782     0.08800
H232        H  0.19887071  0.31746417  0.87815395     0.06300
H233        H  0.09668283  0.02905089  0.92512084     0.06200
C234        C  0.81833146  0.01062410  0.86686249     0.03200
C235        C  0.79961120  0.32415790  0.89985557    -0.13000
C236        C  0.76147567  0.32684570  0.90340693     0.00700
C237        C  0.74202709  0.01614199  0.87352328    -0.11500
C238        C  0.76037379  0.03634735  0.84073817     0.03200
C239        C  0.79852654  0.03396992  0.83793682    -0.10900
H240        H  0.81484525  0.30687726  0.92295675     0.08800
H241        H  0.71258974  0.01791726  0.87562230     0.06300
H242        H  0.81274355  0.04921294  0.81229665     0.06200
O243        O  0.25625931  0.22768868  0.70605080    -0.72900
O244        O  0.20263891  0.28835648  0.79756457    -0.73900
O245        O  0.25594448  0.22820381  0.79716071    -0.62500
O246        O  0.20366629  0.28871929  0.70543850    -0.70900
O247        O  0.15886935  0.24511997  0.70568663    -0.70400
O248        O  0.21155871  0.18419377  0.79756677    -0.61700
O249        O  0.15814511  0.24443793  0.79633189    -0.74200
O250        O  0.21159204  0.18401352  0.70507350    -0.73000
Cu251      Cu  0.23117027  0.25976425  0.75155412     1.04600
Cu252      Cu  0.18358783  0.21277747  0.75112594     1.04300
C253        C  0.24228343  0.19626084  0.69106443     0.93300
C254        C  0.17170417  0.27610569  0.81100026     0.92500
C255        C  0.24208109  0.19678608  0.81198337     0.84600
C256        C  0.17277378  0.27689376  0.69164074     0.90900
C257        C  0.31837643  0.15827753  0.88285908     0.03200
C258        C  0.29963177  0.17828736  0.85007660    -0.13000
C259        C  0.26154965  0.17521857  0.84621982     0.00700
C260        C  0.24215889  0.15224689  0.87586119    -0.11500
C261        C  0.26053123  0.13201458  0.90866540     0.03200
C262        C  0.29867818  0.13460064  0.91156238    -0.10900
H263        H  0.31484460  0.19588802  0.82726072     0.08800
H264        H  0.21274036  0.15027539  0.87360156     0.06300
H265        H  0.31297902  0.11923536  0.93705454     0.06200
C266        C  0.59320303  0.17651778  0.88068164     0.03200
C267        C  0.61283121  0.20000781  0.90975558    -0.13000
C268        C  0.65101896  0.20259743  0.90701707     0.00700
C269        C  0.66944942  0.18253856  0.87405781    -0.11500
C270        C  0.65012189  0.15975200  0.84410096     0.03200
C271        C  0.61205211  0.15661612  0.84787030    -0.10900
H272        H  0.59841507  0.21566443  0.93495692     0.08800
H273        H  0.69886457  0.18458611  0.87184631     0.06300
H274        H  0.59693311  0.13874312  0.82515704     0.06200
O275        O  0.71138335  0.31780537  0.95181023    -0.72900
O276        O  0.65873520  0.25729231  0.54402237    -0.73900
O277        O  0.71143862  0.31855147  0.54419787    -0.62500
O278        O  0.65799592  0.25745347  0.95338657    -0.70900
O279        O  0.70256749  0.21361761  0.95252786    -0.70400
O280        O  0.75622209  0.27500897  0.54349065    -0.61700
O281        O  0.70361238  0.21380657  0.54465898    -0.74200
O282        O  0.75585004  0.27388676  0.95249286    -0.73000
Cu283      Cu  0.68342764  0.28942916  0.99837311     1.04600
Cu284      Cu  0.73110009  0.24254990  0.99829967     1.04300
C285        C  0.74197255  0.30525852  0.93756705     0.93300
C286        C  0.67268244  0.22563442  0.55834387     0.92500
C287        C  0.74222477  0.30653130  0.55819180     0.84600
C288        C  0.67159514  0.22570349  0.93900473     0.90900
C289        C  0.31807281  0.16123475  0.61731309     0.03200
C290        C  0.29958217  0.17696596  0.65320155    -0.13000
C291        C  0.26150519  0.17456794  0.65663328     0.00700
C292        C  0.24190644  0.15275906  0.62604148    -0.11500
C293        C  0.26006456  0.13436394  0.59176121     0.03200
C294        C  0.29779078  0.13949426  0.58695799    -0.10900
H295        H  0.31470026  0.19135431  0.67866238     0.08800
H296        H  0.21255644  0.15018779  0.62877121     0.06300
H297        H  0.31099975  0.12720926  0.55875913     0.06200
C298        C  0.59411338  0.17745898  0.61707115     0.03200
C299        C  0.61446748  0.19870738  0.58653639    -0.13000
C300        C  0.65240933  0.20223874  0.59025633     0.00700
C301        C  0.67063555  0.18270927  0.62370640    -0.11500
C302        C  0.65092082  0.16119581  0.65443029     0.03200
C303        C  0.61273099  0.16012729  0.65190387    -0.10900
H304        H  0.60098560  0.21200082  0.55910190     0.08800
H305        H  0.70008296  0.18426052  0.62577978     0.06300
H306        H  0.59759022  0.14578017  0.67733693     0.06200
O307        O  0.75340423  0.08990268  0.70376688    -0.72900
O308        O  0.70017614  0.15100574  0.79540423    -0.73900
O309        O  0.75346842  0.09083611  0.79427319    -0.62500
O310        O  0.70071922  0.15117648  0.70281412    -0.70900
O311        O  0.65590984  0.10765803  0.70326720    -0.70400
O312        O  0.70894774  0.04691726  0.79504280    -0.61700
O313        O  0.65575013  0.10705530  0.79448020    -0.74200
O314        O  0.70849161  0.04644478  0.70300863    -0.73000
Cu315      Cu  0.72838642  0.12239445  0.74902782     1.04600
Cu316      Cu  0.68072028  0.07549498  0.74892032     1.04300
C317        C  0.73952154  0.05814135  0.68954967     0.93300
C318        C  0.66962079  0.13837621  0.80964684     0.92500
C319        C  0.73982159  0.05917875  0.80869459     0.84600
C320        C  0.67004736  0.13907915  0.68855393     0.90900
O321        O  0.25349348  0.07888881  0.54599255    -0.72900
O322        O  0.19995942  0.01747934  0.95484412    -0.73900
O323        O  0.25352260  0.07753087  0.95537216    -0.62500
O324        O  0.20030367  0.01808856  0.54755414    -0.70900
O325        O  0.15569953  0.06181458  0.54661744    -0.70800
O326        O  0.20911793  0.12156617  0.95436921    -0.61700
O327        O  0.15566128  0.06157978  0.95528079    -0.74200
O328        O  0.20872628  0.12251308  0.54646054    -0.73000
Cu329      Cu  0.22825346  0.04630972  0.00097849     1.04600
Cu330      Cu  0.18076359  0.09338758  0.00067702     1.04300
C331        C  0.23970929  0.11074185  0.56005512     0.93300
C332        C  0.16945747  0.03009188  0.94042171     0.92500
C333        C  0.23995786  0.10918995  0.94077126     0.84600
C334        C  0.16971447  0.03052180  0.56178918     0.90900
C335        C  0.09422222  0.99372593  0.63529195     0.03200
C336        C  0.11462699  0.30483641  0.66483345    -0.13000
C337        C  0.15239553  0.30059876  0.66016393     0.00700
C338        C  0.17038303  0.31986019  0.62635966    -0.11500
C339        C  0.15061778  0.00900473  0.59649357     0.03200
C340        C  0.11252202  0.01154921  0.60050679    -0.10900
H341        H  0.10124694  0.29128333  0.69219232     0.08800
H342        H  0.19972744  0.31740717  0.62342039     0.06300
H343        H  0.09713155  0.02715541  0.57619067     0.06200
C344        C  0.81806263  0.00825425  0.63200564     0.03200
C345        C  0.79750647  0.02918754  0.66284240    -0.13000
C346        C  0.75984250  0.03456364  0.65781141     0.00700
C347        C  0.74175425  0.01651903  0.62328108    -0.11500
C348        C  0.76144832  0.32847791  0.59245188     0.03200
C349        C  0.79959242  0.32657889  0.59564179    -0.10900
H350        H  0.81036287  0.04078530  0.69159931     0.08800
H351        H  0.71239484  0.01898325  0.62057052     0.06300
H352        H  0.81466667  0.31314519  0.56957150     0.06200
C353        C  0.91621157  0.30316305  0.62344672    -0.11300
C354        C  0.93583913  0.99885981  0.64546398     0.15200
C355        C  0.91628737  0.02957949  0.66526616     0.02100
C356        C  0.87866872  0.03269533  0.65877134    -0.15700
C357        C  0.85858478  0.00323287  0.63746958    -0.10500
C358        C  0.87808462  0.30338963  0.62213360     0.08800
C359        C  0.97649861  0.99749832  0.64523840     0.09900
S360        S  0.93731818  0.06486270  0.70078819    -0.24800
H361        H  0.86520570  0.05843136  0.67124288     0.20100
S362        S  0.85689012  0.25858141  0.60441403    -0.30500
H363        H  0.93066839  0.27918877  0.60832887     0.10400
C364        C  0.99612626  0.29697774  0.65703883     0.03700
C365        C  0.03415466  0.29644912  0.65259889    -0.12800
C366        C  0.05375055  0.99661291  0.64007468    -0.08500
C367        C  0.03406627  0.03148315  0.63211352     0.07100
C368        C  0.99595634  0.03083713  0.63234621    -0.13600
S369        S  0.97336614  0.25484558  0.67965903    -0.30500
H370        H  0.04865376  0.26956582  0.65896137     0.11400
S371        S  0.05539360  0.07848694  0.62484441    -0.27600
H372        H  0.98130447  0.05716160  0.62370419     0.08600
H373        H  0.82753869  0.26113482  0.63352662     0.27000
H374        H  0.00490192  0.23352068  0.69017935     0.21800
H375        H  0.08485382  0.07077288  0.65266723     0.27100
H376        H  0.96441024  0.03943096  0.71637235     0.16000
C377        C  0.41529473  0.20179615  0.62408699    -0.11300
C378        C  0.43564569  0.17138104  0.60557341     0.15200
C379        C  0.41681476  0.13884566  0.58838671     0.02100
C380        C  0.37909365  0.13580128  0.59394636    -0.15700
C381        C  0.35844337  0.16646207  0.61198862    -0.10500
C382        C  0.37718040  0.20096911  0.62466108     0.08800
C383        C  0.47625790  0.17324323  0.60696816     0.09900
S384        S  0.43895358  0.10083877  0.55758796    -0.24800
H385        H  0.36591685  0.10915295  0.58346124     0.20100
S386        S  0.35482751  0.24627447  0.63834674    -0.30500
H387        H  0.42917230  0.22708459  0.63723025     0.10400
C388        C  0.49596770  0.20618192  0.59252401     0.03700
C389        C  0.53394480  0.20715869  0.59760407    -0.12800
C390        C  0.55351717  0.17457976  0.61295868    -0.08500
C391        C  0.53365352  0.14043849  0.62392511     0.07100
C392        C  0.49558068  0.14118490  0.62347376    -0.13600
S393        S  0.47346013  0.24632304  0.56552285    -0.30500
H394        H  0.54838673  0.23360738  0.58923255     0.11400
S395        S  0.55448210  0.09375665  0.63489327    -0.27600
H396        H  0.48084513  0.11562536  0.63441060     0.08600
H397        H  0.32558325  0.24086728  0.60953629     0.27000
H398        H  0.50511855  0.26668516  0.55333827     0.21800
H399        H  0.58341889  0.09896530  0.60564131     0.27100
H400        H  0.46612115  0.12513356  0.54009736     0.16000
C401        C  0.49662376  0.15731227  0.92153629    -0.11300
C402        C  0.47592800  0.16792788  0.88524433     0.15200
C403        C  0.49395429  0.18130684  0.84776808     0.02100
C404        C  0.53200796  0.18414781  0.84750638    -0.15700
C405        C  0.55287908  0.17323457  0.88358466    -0.10500
C406        C  0.53480645  0.15928176  0.92095290     0.08800
C407        C  0.43562918  0.16491331  0.88727300     0.09900
S408        S  0.47000743  0.19505313  0.79917145    -0.24800
H409        H  0.54554073  0.19479559  0.81871145     0.20100
S410        S  0.55870656  0.14229376  0.96830700    -0.30500
H411        H  0.48290684  0.14680678  0.95028226     0.10400
C412        C  0.41783084  0.12853327  0.88421839     0.03700
C413        C  0.37958151  0.12714024  0.88398321    -0.12800
C414        C  0.35865792  0.16142520  0.88659455    -0.08500
C415        C  0.37668479  0.19777477  0.89099709     0.07100
C416        C  0.41484646  0.19912085  0.89082289    -0.13600
S417        S  0.44385842  0.08406047  0.87853847    -0.30500
H418        H  0.36582911  0.09933374  0.88060543     0.11400
S419        S  0.35271344  0.24335052  0.89786479    -0.27600
H420        H  0.42851845  0.22706464  0.89355694     0.08600
H421        H  0.58907666  0.12747054  0.94596964     0.27000
H422        H  0.41398221  0.05868490  0.87375691     0.21800
H423        H  0.32281895  0.22740118  0.92012593     0.27100
H424        H  0.44118027  0.16835633  0.80372456     0.16000
C425        C  0.99690297  0.01083102  0.82794200    -0.11300
C426        C  0.97591277  0.00025334  0.86399554     0.15200
C427        C  0.99365351  0.31970622  0.90148906     0.02100
C428        C  0.03170300  0.31675063  0.90213201    -0.15700
C429        C  0.05284104  0.99449276  0.86636150    -0.10500
C430        C  0.03505760  0.00858876  0.82885447     0.08800
C431        C  0.93560973  0.00346897  0.86159112     0.09900
S432        S  0.96935323  0.30542709  0.94964127    -0.24800
H433        H  0.04502040  0.30585713  0.93097015     0.20100
S434        S  0.05930795  0.02528889  0.78164086    -0.30500
H435        H  0.98343088  0.02146511  0.79908445     0.10400
C436        C  0.91793166  0.04004439  0.86193480     0.03700
C437        C  0.87967477  0.04158236  0.86272830    -0.12800
C438        C  0.85861718  0.00728268  0.86278812    -0.08500
C439        C  0.87653403  0.30406788  0.86021992     0.07100
C440        C  0.91466921  0.30258098  0.86029119    -0.13600
S441        S  0.94406963  0.08472695  0.86346294    -0.30500
H442        H  0.86605264  0.06958239  0.86449650     0.11400
S443        S  0.85245494  0.25834157  0.85552772    -0.27600
H444        H  0.92821635  0.27447583  0.85919400     0.08600
H445        H  0.08948556  0.04027012  0.80423764     0.27000
H446        H  0.91429651  0.11053194  0.86141451     0.21800
H447        H  0.82287866  0.27349670  0.83198745     0.27100
H448        H  0.94068693  0.33235126  0.94520668     0.16000
C449        C  0.09313788  0.32452832  0.36961961     0.03200
C450        C  0.11287557  0.63449205  0.34056551    -0.13000
C451        C  0.15107781  0.63227541  0.34316883     0.00700
C452        C  0.16943083  0.65252930  0.37606367    -0.11500
C453        C  0.14999312  0.34181494  0.40608461     0.03200
C454        C  0.11188434  0.34458927  0.40242222    -0.10900
H455        H  0.09852386  0.61874854  0.31536789     0.08800
H456        H  0.19887052  0.65079750  0.37815394     0.06300
H457        H  0.09668291  0.36238467  0.42512073     0.06200
C458        C  0.81833137  0.34395744  0.36686253     0.03200
C459        C  0.79961109  0.65749135  0.39985538    -0.13000
C460        C  0.76147554  0.66017903  0.40340661     0.00700
C461        C  0.74202701  0.34947526  0.37352338    -0.11500
C462        C  0.76037368  0.36968067  0.34073829     0.03200
C463        C  0.79852641  0.36730321  0.33793685    -0.10900
H464        H  0.81484513  0.64021054  0.42295654     0.08800
H465        H  0.71258955  0.35125055  0.37562242     0.06300
H466        H  0.81274336  0.38254618  0.31229667     0.06200
O467        O  0.25625928  0.56102205  0.20605095    -0.72900
O468        O  0.20263871  0.62168994  0.29756451    -0.73900
O469        O  0.25594434  0.56153742  0.29716077    -0.62500
O470        O  0.20366630  0.62205270  0.20543848    -0.70900
O471        O  0.15886940  0.57845333  0.20568671    -0.70400
O472        O  0.21155878  0.51752713  0.29756679    -0.61700
O473        O  0.15814508  0.57777120  0.29633197    -0.74200
O474        O  0.21159201  0.51734691  0.20507358    -0.73000
Cu475      Cu  0.23117015  0.59309773  0.25155414     1.04600
Cu476      Cu  0.18358786  0.54611083  0.25112602     1.04300
C477        C  0.24228342  0.52959420  0.19106458     0.93300
C478        C  0.17170403  0.60943904  0.31100025     0.92500
C479        C  0.24208109  0.53011962  0.31198341     0.84600
C480        C  0.17277380  0.61022715  0.19164077     0.90900
C481        C  0.31837642  0.49161107  0.38285924     0.03200
C482        C  0.29963182  0.51162093  0.35007667    -0.13000
C483        C  0.26154966  0.50855219  0.34621994     0.00700
C484        C  0.24215882  0.48558049  0.37586126    -0.11500
C485        C  0.26053119  0.46534821  0.40866554     0.03200
C486        C  0.29867810  0.46793438  0.41156264    -0.10900
H487        H  0.31484457  0.52922137  0.32726095     0.08800
H488        H  0.21274054  0.48360900  0.37360159     0.06300
H489        H  0.31297887  0.45256925  0.43705498     0.06200
C490        C  0.59320303  0.50985098  0.38068189     0.03200
C491        C  0.61283120  0.53334093  0.40975595    -0.13000
C492        C  0.65101891  0.53593065  0.40701731     0.00700
C493        C  0.66944944  0.51587188  0.37405799    -0.11500
C494        C  0.65012184  0.49308530  0.34410111     0.03200
C495        C  0.61205212  0.48994943  0.34787051    -0.10900
H496        H  0.59841508  0.54899736  0.43495737     0.08800
H497        H  0.69886427  0.51791944  0.37184650     0.06300
H498        H  0.59693303  0.47207630  0.32515713     0.06200
O499        O  0.71138312  0.65113860  0.45180986    -0.72900
O500        O  0.65873509  0.59062553  0.04402224    -0.73900
O501        O  0.71143849  0.65188470  0.04419782    -0.62500
O502        O  0.65799584  0.59078674  0.45338669    -0.70900
O503        O  0.70256747  0.54695096  0.45252794    -0.70400
O504        O  0.75622203  0.60834234  0.04349064    -0.61700
O505        O  0.70361235  0.54713991  0.04465900    -0.74200
O506        O  0.75584994  0.60722013  0.45249262    -0.73000
Cu507      Cu  0.68342766  0.62276251  0.49837302     1.04600
Cu508      Cu  0.73110017  0.57588332  0.49829962     1.04300
C509        C  0.74197237  0.63859181  0.43756669     0.93300
C510        C  0.67268240  0.55896772  0.05834386     0.92500
C511        C  0.74222468  0.63986466  0.05819175     0.84600
C512        C  0.67159511  0.55903677  0.43900487     0.90900
C513        C  0.31807287  0.49456797  0.11731339     0.03200
C514        C  0.29958219  0.51029924  0.15320184    -0.13000
C515        C  0.26150520  0.50790122  0.15663347     0.00700
C516        C  0.24190649  0.48609236  0.12604161    -0.11500
C517        C  0.26006468  0.46769716  0.09176142     0.03200
C518        C  0.29779086  0.47282751  0.08695830    -0.10900
H519        H  0.31470019  0.52468747  0.17866255     0.08800
H520        H  0.21255646  0.48352117  0.12877118     0.06300
H521        H  0.31099999  0.46054241  0.05875927     0.06200
C522        C  0.59411343  0.51079219  0.11707114     0.03200
C523        C  0.61446749  0.53204063  0.08653637    -0.13000
C524        C  0.65240933  0.53557207  0.09025636     0.00700
C525        C  0.67063558  0.51604267  0.12370647    -0.11500
C526        C  0.65092088  0.49452913  0.15443030     0.03200
C527        C  0.61273105  0.49346056  0.15190389    -0.10900
H528        H  0.60098564  0.54533397  0.05910187     0.08800
H529        H  0.70008293  0.51759400  0.12577992     0.06300
H530        H  0.59759031  0.47911341  0.17733692     0.06200
O531        O  0.75340432  0.42323597  0.20376707    -0.72900
O532        O  0.70017610  0.48433908  0.29540437    -0.73900
O533        O  0.75346833  0.42416948  0.29427338    -0.62500
O534        O  0.70071933  0.48450984  0.20281410    -0.70900
O535        O  0.65591002  0.44099131  0.20326715    -0.70400
O536        O  0.70894773  0.38025052  0.29504278    -0.61700
O537        O  0.65575012  0.44038861  0.29448024    -0.74200
O538        O  0.70849172  0.37977806  0.20300879    -0.73000
Cu539      Cu  0.72838644  0.45572780  0.24902792     1.04600
Cu540      Cu  0.68072036  0.40882829  0.24892034     1.04300
C541        C  0.73952166  0.39147462  0.18954990     0.93300
C542        C  0.66962078  0.47170954  0.30964696     0.92500
C543        C  0.73982153  0.39251208  0.30869469     0.84600
C544        C  0.67004749  0.47241247  0.18855391     0.90900
O545        O  0.25349363  0.41222209  0.04599264    -0.72900
O546        O  0.19995952  0.35081297  0.45484390    -0.73900
O547        O  0.25352269  0.41086453  0.45537234    -0.62500
O548        O  0.20030379  0.35142188  0.04755403    -0.70900
O549        O  0.15569961  0.39514782  0.04661723    -0.70800
O550        O  0.20911798  0.45489982  0.45436946    -0.61700
O551        O  0.15566137  0.39491338  0.45528072    -0.74200
O552        O  0.20872642  0.45584632  0.04646074    -0.73000
Cu553      Cu  0.22825358  0.37964321  0.50097848     1.04600
Cu554      Cu  0.18076369  0.42672104  0.50067710     1.04300
C555        C  0.23970943  0.44407510  0.06005529     0.93300
C556        C  0.16945755  0.36342551  0.44042153     0.92500
C557        C  0.23995788  0.44252360  0.44077145     0.84600
C558        C  0.16971455  0.36385504  0.06178898     0.90900
C559        C  0.09422236  0.32705917  0.13529172     0.03200
C560        C  0.11462697  0.63816977  0.16483342    -0.13000
C561        C  0.15239550  0.63393217  0.16016401     0.00700
C562        C  0.17038302  0.65319371  0.12635979    -0.11500
C563        C  0.15061786  0.34233787  0.09649326     0.03200
C564        C  0.11252212  0.34488226  0.10050645    -0.10900
H565        H  0.10124680  0.62461645  0.19219239     0.08800
H566        H  0.19972738  0.65074072  0.12342056     0.06300
H567        H  0.09713155  0.36048838  0.07619014     0.06200
C568        C  0.81806276  0.34158751  0.13200589     0.03200
C569        C  0.79750662  0.36252083  0.16284267    -0.13000
C570        C  0.75984264  0.36789690  0.15781167     0.00700
C571        C  0.74175446  0.34985228  0.12328133    -0.11500
C572        C  0.76144827  0.66181137  0.09245174     0.03200
C573        C  0.79959240  0.65991246  0.09564157    -0.10900
H574        H  0.81036303  0.37411859  0.19159954     0.08800
H575        H  0.71239482  0.35231649  0.12057073     0.06300
H576        H  0.81466669  0.64647874  0.06957119     0.06200
C577        C  0.91621155  0.63649667  0.12344613    -0.11300
C578        C  0.93583925  0.33219296  0.14546419     0.15200
C579        C  0.91628750  0.36291272  0.16526626     0.02100
C580        C  0.87866886  0.36602861  0.15877140    -0.15700
C581        C  0.85858490  0.33656613  0.13746980    -0.10500
C582        C  0.87808460  0.63672323  0.12213315     0.08800
C583        C  0.97649874  0.33083150  0.14523837     0.09900
S584        S  0.93731827  0.39819600  0.20078814    -0.24800
H585        H  0.86520582  0.39176474  0.17124289     0.20100
S586        S  0.85689018  0.59191503  0.10441336    -0.30500
H587        H  0.93066830  0.61252259  0.10832822     0.10400
C588        C  0.99612615  0.63031120  0.15703819     0.03700
C589        C  0.03415457  0.62978250  0.15259852    -0.12800
C590        C  0.05375069  0.32994613  0.14007440    -0.08500
C591        C  0.03406636  0.36481631  0.13211312     0.07100
C592        C  0.99595644  0.36417022  0.13234593    -0.13600
S593        S  0.97336590  0.58817913  0.17965838    -0.30500
H594        H  0.04865353  0.60289930  0.15896101     0.11400
S595        S  0.05539367  0.41182004  0.12484341    -0.27600
H596        H  0.98130444  0.39049478  0.12370376     0.08600
H597        H  0.82753875  0.59446830  0.13352596     0.27000
H598        H  0.00490170  0.56685513  0.19018088     0.21800
H599        H  0.08485402  0.40410625  0.15266615     0.27100
H600        H  0.96441036  0.37276430  0.21637231     0.16000
C601        C  0.41529483  0.53512924  0.12408726    -0.11300
C602        C  0.43564576  0.50471405  0.10557375     0.15200
C603        C  0.41681482  0.47217859  0.08838724     0.02100
C604        C  0.37909372  0.46913426  0.09394697    -0.15700
C605        C  0.35844345  0.49979512  0.11198911    -0.10500
C606        C  0.37718050  0.53430217  0.12466143     0.08800
C607        C  0.47625797  0.50657624  0.10696841     0.09900
S608        S  0.43895361  0.43417155  0.05758861    -0.24800
H609        H  0.36591684  0.44248585  0.08346187     0.20100
S610        S  0.35482758  0.57960753  0.13834703    -0.30500
H611        H  0.42917236  0.56041765  0.13723037     0.10400
C612        C  0.49596775  0.53951485  0.09252407     0.03700
C613        C  0.53394485  0.54049170  0.09760399    -0.12800
C614        C  0.55351724  0.50791282  0.11295869    -0.08500
C615        C  0.53365361  0.47377155  0.12392534     0.07100
C616        C  0.49558077  0.47451796  0.12347406    -0.13600
S617        S  0.47346016  0.57965584  0.06552278    -0.30500
H618        H  0.54838668  0.56694025  0.08923237     0.11400
S619        S  0.55448218  0.42708970  0.13489356    -0.27600
H620        H  0.48084524  0.44895844  0.13441100     0.08600
H621        H  0.32558342  0.57420038  0.10953643     0.27000
H622        H  0.50511852  0.60001823  0.05333852     0.21800
H623        H  0.58341908  0.43229838  0.10564178     0.27100
H624        H  0.46612122  0.45846624  0.04009791     0.16000
C625        C  0.49662388  0.49064473  0.42153654    -0.11300
C626        C  0.47592804  0.50126100  0.38524482     0.15200
C627        C  0.49395426  0.51464043  0.34776872     0.02100
C628        C  0.53200790  0.51748140  0.34750697    -0.15700
C629        C  0.55287911  0.50656764  0.38358497    -0.10500
C630        C  0.53480660  0.49261420  0.42095297     0.08800
C631        C  0.43562919  0.49824653  0.38727358     0.09900
S632        S  0.47000746  0.52838703  0.29917212    -0.24800
H633        H  0.54554062  0.52812957  0.31871212     0.20100
S634        S  0.55870690  0.47562560  0.46830666    -0.30500
H635        H  0.48290717  0.48013894  0.45028216     0.10400
C636        C  0.41783077  0.46186650  0.38421925     0.03700
C637        C  0.37958144  0.46047360  0.38398389    -0.12800
C638        C  0.35865792  0.49475866  0.38659481    -0.08500
C639        C  0.37668485  0.53110822  0.39099703     0.07100
C640        C  0.41484652  0.53245419  0.39082291    -0.13600
S641        S  0.44385820  0.41739356  0.37853943    -0.30500
H642        H  0.36582900  0.43266717  0.38060624     0.11400
S643        S  0.35271352  0.57668410  0.39786412    -0.27600
H644        H  0.42851857  0.56039801  0.39355659     0.08600
H645        H  0.58907697  0.46080275  0.44596893     0.27000
H646        H  0.41398188  0.39201804  0.37375846     0.21800
H647        H  0.32281899  0.56073505  0.42012545     0.27100
H648        H  0.44118017  0.50169038  0.30372510     0.16000
C649        C  0.99690289  0.34416490  0.32794193    -0.11300
C650        C  0.97591274  0.33358746  0.36399560     0.15200
C651        C  0.99365341  0.65303813  0.40148912     0.02100
C652        C  0.03170289  0.65008250  0.40213200    -0.15700
C653        C  0.05284099  0.32782662  0.36636137    -0.10500
C654        C  0.03505751  0.34192247  0.32885429     0.08800
C655        C  0.93560970  0.33680290  0.36159115     0.09900
S656        S  0.96935321  0.63875746  0.44964073    -0.24800
H657        H  0.04502028  0.63918823  0.43096977     0.20100
S658        S  0.05930775  0.35862247  0.28164054    -0.30500
H659        H  0.98343080  0.35479885  0.29908441     0.10400
C660        C  0.91793145  0.37337822  0.36193438     0.03700
C661        C  0.87967455  0.37491599  0.36272790    -0.12800
C662        C  0.85861712  0.34061622  0.36278818    -0.08500
C663        C  0.87653383  0.63740151  0.36021915     0.07100
C664        C  0.91466903  0.63591435  0.36029054    -0.13600
S665        S  0.94406919  0.41806091  0.36346163    -0.30500
H666        H  0.86605228  0.40291598  0.36449568     0.11400
S667        S  0.85245448  0.59167548  0.35552513    -0.27600
H668        H  0.92821593  0.60780935  0.35919238     0.08600
H669        H  0.08948549  0.37360357  0.30423716     0.27000
H670        H  0.91429587  0.44386573  0.36141444     0.21800
H671        H  0.82287834  0.60683150  0.33198530     0.27100
H672        H  0.94068693  0.66568179  0.44520719     0.16000
C673        C  0.09313793  0.32452804  0.86961971     0.03200
C674        C  0.11287579  0.63449213  0.84056551    -0.13000
C675        C  0.15107802  0.63227543  0.84316891     0.00700
C676        C  0.16943103  0.65252934  0.87606375    -0.11500
C677        C  0.14999313  0.34181481  0.90608466     0.03200
C678        C  0.11188436  0.34458906  0.90242224    -0.10900
H679        H  0.09852410  0.61874855  0.81536786     0.08800
H680        H  0.19887075  0.65079747  0.87815405     0.06300
H681        H  0.09668283  0.36238457  0.92512074     0.06200
C682        C  0.81833146  0.34395734  0.86686275     0.03200
C683        C  0.79961123  0.65749140  0.89985544    -0.13000
C684        C  0.76147569  0.66017909  0.90340676     0.00700
C685        C  0.74202709  0.34947520  0.87352359    -0.11500
C686        C  0.76037380  0.36968068  0.84073854     0.03200
C687        C  0.79852650  0.36730315  0.83793713    -0.10900
H688        H  0.81484530  0.64021079  0.92295671     0.08800
H689        H  0.71258975  0.35125044  0.87562262     0.06300
H690        H  0.81274355  0.38254621  0.81229681     0.06200
O691        O  0.25625942  0.56102211  0.70605100    -0.72900
O692        O  0.20263892  0.62168999  0.79756456    -0.73900
O693        O  0.25594448  0.56153728  0.79716074    -0.62500
O694        O  0.20366635  0.62205280  0.70543853    -0.70900
O695        O  0.15886946  0.57845345  0.70568688    -0.70400
O696        O  0.21155878  0.51752717  0.79756685    -0.61700
O697        O  0.15814526  0.57777129  0.79633200    -0.74200
O698        O  0.21159210  0.51734707  0.70507357    -0.73000
Cu699      Cu  0.23117028  0.59309771  0.75155417     1.04600
Cu700      Cu  0.18358798  0.54611095  0.75112609     1.04300
C701        C  0.24228353  0.52959432  0.69106459     0.93300
C702        C  0.17170423  0.60943910  0.81100030     0.92500
C703        C  0.24208116  0.53011951  0.81198340     0.84600
C704        C  0.17277382  0.61022726  0.69164091     0.90900
C705        C  0.31837657  0.49161079  0.88285901     0.03200
C706        C  0.29963193  0.51162073  0.85007659    -0.13000
C707        C  0.26154978  0.50855200  0.84621982     0.00700
C708        C  0.24215900  0.48558035  0.87586120    -0.11500
C709        C  0.26053134  0.46534806  0.90866544     0.03200
C710        C  0.29867828  0.46793402  0.91156239    -0.10900
H711        H  0.31484477  0.52922139  0.82726077     0.08800
H712        H  0.21274052  0.48360889  0.87360157     0.06300
H713        H  0.31297906  0.45256880  0.93705450     0.06200
C714        C  0.59320306  0.50985117  0.88068163     0.03200
C715        C  0.61283120  0.53334111  0.90975567    -0.13000
C716        C  0.65101893  0.53593080  0.90701712     0.00700
C717        C  0.66944941  0.51587195  0.87405791    -0.11500
C718        C  0.65012193  0.49308535  0.84410104     0.03200
C719        C  0.61205214  0.48994955  0.84787027    -0.10900
H720        H  0.59841502  0.54899761  0.93495711     0.08800
H721        H  0.69886458  0.51791948  0.87184650     0.06300
H722        H  0.59693315  0.47207655  0.82515697     0.06200
O723        O  0.71138327  0.65113861  0.95180994    -0.72900
O724        O  0.65873531  0.59062556  0.54402243    -0.73900
O725        O  0.71143863  0.65188481  0.54419765    -0.62500
O726        O  0.65799591  0.59078681  0.95338651    -0.70900
O727        O  0.70256744  0.54695093  0.95252791    -0.70400
O728        O  0.75622218  0.60834241  0.54349044    -0.61700
O729        O  0.70361255  0.54713989  0.54465915    -0.74200
O730        O  0.75585008  0.60722017  0.95249283    -0.73000
Cu731      Cu  0.68342762  0.62276246  0.99837296     1.04600
Cu732      Cu  0.73110008  0.57588334  0.99829967     1.04300
C733        C  0.74197256  0.63859187  0.93756689     0.93300
C734        C  0.67268260  0.55896770  0.55834400     0.92500
C735        C  0.74222481  0.63986473  0.55819157     0.84600
C736        C  0.67159511  0.55903683  0.93900474     0.90900
C737        C  0.31807294  0.49456810  0.61731324     0.03200
C738        C  0.29958232  0.51029940  0.65320177    -0.13000
C739        C  0.26150530  0.50790137  0.65663344     0.00700
C740        C  0.24190650  0.48609239  0.62604171    -0.11500
C741        C  0.26006470  0.46769720  0.59176147     0.03200
C742        C  0.29779085  0.47282762  0.58695825    -0.10900
H743        H  0.31470029  0.52468750  0.67866234     0.08800
H744        H  0.21255677  0.48352110  0.62877139     0.06300
H745        H  0.31099993  0.46054248  0.55875916     0.06200
C746        C  0.59411352  0.51079214  0.61707097     0.03200
C747        C  0.61446768  0.53204050  0.58653628    -0.13000
C748        C  0.65240946  0.53557200  0.59025638     0.00700
C749        C  0.67063570  0.51604256  0.62370653    -0.11500
C750        C  0.65092086  0.49452916  0.65443041     0.03200
C751        C  0.61273106  0.49346064  0.65190388    -0.10900
H752        H  0.60098578  0.54533392  0.55910153     0.08800
H753        H  0.70008279  0.51759379  0.62577997     0.06300
H754        H  0.59759016  0.47911354  0.67733698     0.06200
O755        O  0.75340442  0.42323591  0.70376715    -0.72900
O756        O  0.70017626  0.48433900  0.79540444    -0.73900
O757        O  0.75346847  0.42416947  0.79427349    -0.62500
O758        O  0.70071936  0.48450970  0.70281411    -0.70900
O759        O  0.65591001  0.44099127  0.70326718    -0.70400
O760        O  0.70894783  0.38025061  0.79504302    -0.61700
O761        O  0.65575023  0.44038864  0.79448025    -0.74200
O762        O  0.70849183  0.37977802  0.70300891    -0.73000
Cu763      Cu  0.72838649  0.45572767  0.74902797     1.04600
Cu764      Cu  0.68072048  0.40882832  0.74892042     1.04300
C765        C  0.73952176  0.39147459  0.68954998     0.93300
C766        C  0.66962091  0.47170950  0.80964701     0.92500
C767        C  0.73982162  0.39251211  0.80869492     0.84600
C768        C  0.67004747  0.47241244  0.68855398     0.90900
O769        O  0.25349366  0.41222205  0.54599277    -0.72900
O770        O  0.19995943  0.35081279  0.95484398    -0.73900
O771        O  0.25352273  0.41086432  0.95537215    -0.62500
O772        O  0.20030397  0.35142175  0.54755405    -0.70900
O773        O  0.15569977  0.39514770  0.54661727    -0.70800
O774        O  0.20911815  0.45489972  0.95436943    -0.61700
O775        O  0.15566144  0.39491336  0.95528065    -0.74200
O776        O  0.20872644  0.45584630  0.54646073    -0.73000
Cu777      Cu  0.22825351  0.37964316  0.00097843     1.04600
Cu778      Cu  0.18076375  0.42672101  0.00067706     1.04300
C779        C  0.23970942  0.44407508  0.56005536     0.93300
C780        C  0.16945753  0.36342540  0.94042156     0.92500
C781        C  0.23995800  0.44252346  0.94077135     0.84600
C782        C  0.16971471  0.36385491  0.56178900     0.90900
C783        C  0.09422236  0.32705911  0.63529159     0.03200
C784        C  0.11462694  0.63816992  0.66483376    -0.13000
C785        C  0.15239547  0.63393225  0.66016416     0.00700
C786        C  0.17038292  0.65319375  0.62635989    -0.11500
C787        C  0.15061795  0.34233777  0.59649325     0.03200
C788        C  0.11252220  0.34488227  0.60050642    -0.10900
H789        H  0.10124692  0.62461680  0.69219261     0.08800
H790        H  0.19972727  0.65074073  0.62342052     0.06300
H791        H  0.09713170  0.36048855  0.57619013     0.06200
C792        C  0.81806276  0.34158737  0.63200609     0.03200
C793        C  0.79750662  0.36252064  0.66284289    -0.13000
C794        C  0.75984267  0.36789687  0.65781176     0.00700
C795        C  0.74175443  0.34985241  0.62328136    -0.11500
C796        C  0.76144834  0.66181141  0.59245161     0.03200
C797        C  0.79959246  0.65991255  0.59564144    -0.10900
H798        H  0.81036300  0.37411830  0.69159977     0.08800
H799        H  0.71239499  0.35231676  0.62057074     0.06300
H800        H  0.81466676  0.64647887  0.56957111     0.06200
C801        C  0.91621174  0.63649680  0.62344649    -0.11300
C802        C  0.93583930  0.33219273  0.64546426     0.15200
C803        C  0.91628759  0.36291241  0.66526653     0.02100
C804        C  0.87866895  0.36602826  0.65877176    -0.15700
C805        C  0.85858491  0.33656593  0.63747004    -0.10500
C806        C  0.87808476  0.63672341  0.62213330     0.08800
C807        C  0.97649878  0.33083132  0.64523844     0.09900
S808        S  0.93731845  0.39819557  0.70078853    -0.24800
H809        H  0.86520584  0.39176456  0.67124351     0.20100
S810        S  0.85689036  0.59191514  0.60441369    -0.30500
H811        H  0.93066850  0.61252274  0.60832881     0.10400
C812        C  0.99612621  0.63031143  0.65703913     0.03700
C813        C  0.03415463  0.62978269  0.65259924    -0.12800
C814        C  0.05375068  0.32994602  0.64007431    -0.08500
C815        C  0.03406633  0.36481619  0.63211322     0.07100
C816        C  0.99595639  0.36417019  0.63234618    -0.13600
S817        S  0.97336591  0.58817935  0.67965934    -0.30500
H818        H  0.04865356  0.60289955  0.65896164     0.11400
S819        S  0.05539361  0.41181991  0.62484375    -0.27600
H820        H  0.98130451  0.39049449  0.62370433     0.08600
H821        H  0.82753884  0.59446856  0.63352616     0.27000
H822        H  0.00490173  0.56685571  0.69018258     0.21800
H823        H  0.08485401  0.40410598  0.65266634     0.27100
H824        H  0.96441059  0.37276386  0.71637257     0.16000
C825        C  0.41529505  0.53512914  0.62408691    -0.11300
C826        C  0.43564590  0.50471396  0.60557320     0.15200
C827        C  0.41681486  0.47217854  0.58838671     0.02100
C828        C  0.37909376  0.46913431  0.59394662    -0.15700
C829        C  0.35844355  0.49979522  0.61198883    -0.10500
C830        C  0.37718070  0.53430222  0.62466115     0.08800
C831        C  0.47625813  0.50657613  0.60696773     0.09900
S832        S  0.43895352  0.43417142  0.55758802    -0.24800
H833        H  0.36591677  0.44248588  0.58346158     0.20100
S834        S  0.35482782  0.57960759  0.63834703    -0.30500
H835        H  0.42917270  0.56041747  0.63723009     0.10400
C836        C  0.49596791  0.53951478  0.59252343     0.03700
C837        C  0.53394501  0.54049167  0.59760347    -0.12800
C838        C  0.55351736  0.50791279  0.61295834    -0.08500
C839        C  0.53365374  0.47377156  0.62392498     0.07100
C840        C  0.49558092  0.47451786  0.62347347    -0.13600
S841        S  0.47346035  0.57965588  0.56552221    -0.30500
H842        H  0.54838680  0.56694010  0.58923193     0.11400
S843        S  0.55448237  0.42708977  0.63489329    -0.27600
H844        H  0.48084542  0.44895832  0.63441031     0.08600
H845        H  0.32558359  0.57420058  0.60953649     0.27000
H846        H  0.50511872  0.60001826  0.55333797     0.21800
H847        H  0.58341924  0.43229840  0.60564145     0.27100
H848        H  0.46612109  0.45846608  0.54009724     0.16000
C849        C  0.49662395  0.49064484  0.92153612    -0.11300
C850        C  0.47592812  0.50126105  0.88524440     0.15200
C851        C  0.49395437  0.51464058  0.84776835     0.02100
C852        C  0.53200799  0.51748159  0.84750667    -0.15700
C853        C  0.55287916  0.50656787  0.88358470    -0.10500
C854        C  0.53480663  0.49261435  0.92095268     0.08800
C855        C  0.43562930  0.49824646  0.88727310     0.09900
S856        S  0.47000763  0.52838744  0.79917182    -0.24800
H857        H  0.54554076  0.52812976  0.81871179     0.20100
S858        S  0.55870682  0.47562546  0.96830633    -0.30500
H859        H  0.48290713  0.48013889  0.95028185     0.10400
C860        C  0.41783094  0.46186641  0.88421858     0.03700
C861        C  0.37958162  0.46047339  0.88398330    -0.12800
C862        C  0.35865805  0.49475838  0.88659453    -0.08500
C863        C  0.37668491  0.53110794  0.89099710     0.07100
C864        C  0.41484657  0.53245402  0.89082289    -0.13600
S865        S  0.44385844  0.41739359  0.87853848    -0.30500
H866        H  0.36582924  0.43266695  0.88060551     0.11400
S867        S  0.35271345  0.57668365  0.89786479    -0.27600
H868        H  0.42851859  0.56039783  0.89355691     0.08600
H869        H  0.58907705  0.46080293  0.94596867     0.27000
H870        H  0.41398217  0.39201804  0.87375723     0.21800
H871        H  0.32281903  0.56073430  0.92012607     0.27100
H872        H  0.44118010  0.50169109  0.80372475     0.16000
C873        C  0.99690293  0.34416418  0.82794175    -0.11300
C874        C  0.97591277  0.33358679  0.86399551     0.15200
C875        C  0.99365360  0.65303907  0.90148917     0.02100
C876        C  0.03170309  0.65008343  0.90213205    -0.15700
C877        C  0.05284105  0.32782633  0.86636143    -0.10500
C878        C  0.03505759  0.34192204  0.82885428     0.08800
C879        C  0.93560972  0.33680235  0.86159109     0.09900
S880        S  0.96935342  0.63875879  0.94964099    -0.24800
H881        H  0.04502049  0.63918948  0.93096995     0.20100
S882        S  0.05930790  0.35862228  0.78164064    -0.30500
H883        H  0.98343095  0.35479792  0.79908442     0.10400
C884        C  0.91793157  0.37337775  0.86193419     0.03700
C885        C  0.87967469  0.37491562  0.86272787    -0.12800
C886        C  0.85861716  0.34061592  0.86278825    -0.08500
C887        C  0.87653412  0.63740148  0.86021990     0.07100
C888        C  0.91466928  0.63591449  0.86029120    -0.13600
S889        S  0.94406938  0.41806042  0.86346133    -0.30500
H890        H  0.86605250  0.40291569  0.86449573     0.11400
S891        S  0.85245512  0.59167521  0.85552709    -0.27600
H892        H  0.92821632  0.60780940  0.85919373     0.08600
H893        H  0.08948542  0.37360366  0.80423747     0.27000
H894        H  0.91429612  0.44386530  0.86141381     0.21800
H895        H  0.82287884  0.60683052  0.83198696     0.27100
H896        H  0.94068708  0.66568300  0.94520709     0.16000
C897        C  0.09313775  0.65786096  0.36962002     0.03200
C898        C  0.11287551  0.96782521  0.34056576    -0.13000
C899        C  0.15107777  0.96560857  0.34316911     0.00700
C900        C  0.16943078  0.98586255  0.37606386    -0.11500
C901        C  0.14999294  0.67514779  0.40608492     0.03200
C902        C  0.11188416  0.67792180  0.40242270    -0.10900
H903        H  0.09852381  0.95208162  0.31536822     0.08800
H904        H  0.19887051  0.98413071  0.37815415     0.06300
H905        H  0.09668260  0.69571707  0.42512144     0.06200
C906        C  0.81833144  0.67729105  0.36686286     0.03200
C907        C  0.79961094  0.99082470  0.39985549    -0.13000
C908        C  0.76147539  0.99351244  0.40340674     0.00700
C909        C  0.74202703  0.68280852  0.37352321    -0.11500
C910        C  0.76037380  0.70301412  0.34073833     0.03200
C911        C  0.79852658  0.70063694  0.33793720    -0.10900
H912        H  0.81484496  0.97354406  0.42295662     0.08800
H913        H  0.71258965  0.68458365  0.37562210     0.06300
H914        H  0.81274361  0.71588008  0.31229725     0.06200
O915        O  0.25625945  0.89435544  0.20605110    -0.72900
O916        O  0.20263877  0.95502320  0.29756485    -0.73900
O917        O  0.25594450  0.89487062  0.29716095    -0.62500
O918        O  0.20366633  0.95538604  0.20543873    -0.70900
O919        O  0.15886938  0.91178673  0.20568687    -0.70400
O920        O  0.21155878  0.85086050  0.29756681    -0.61700
O921        O  0.15814505  0.91110456  0.29633201    -0.74200
O922        O  0.21159209  0.85068042  0.20507356    -0.73000
Cu923      Cu  0.23117028  0.92643102  0.25155439     1.04600
Cu924      Cu  0.18358787  0.87944424  0.25112607     1.04300
C925        C  0.24228354  0.86292768  0.19106459     0.93300
C926        C  0.17170402  0.94277230  0.31100047     0.92500
C927        C  0.24208112  0.86345285  0.31198348     0.84600
C928        C  0.17277383  0.94356050  0.19164094     0.90900
C929        C  0.31837638  0.82494403  0.38285905     0.03200
C930        C  0.29963178  0.84495406  0.35007665    -0.13000
C931        C  0.26154963  0.84188533  0.34621992     0.00700
C932        C  0.24215876  0.81891362  0.37586119    -0.11500
C933        C  0.26053114  0.79868122  0.40866534     0.03200
C934        C  0.29867806  0.80126726  0.41156234    -0.10900
H935        H  0.31484455  0.86255460  0.32726098     0.08800
H936        H  0.21274050  0.81694217  0.37360157     0.06300
H937        H  0.31297890  0.78590195  0.43705455     0.06200
C938        C  0.59320285  0.84318416  0.38068160     0.03200
C939        C  0.61283097  0.86667411  0.40975565    -0.13000
C940        C  0.65101868  0.86926402  0.40701703     0.00700
C941        C  0.66944919  0.84920531  0.37405769    -0.11500
C942        C  0.65012173  0.82641864  0.34410088     0.03200
C943        C  0.61205197  0.82328262  0.34787021    -0.10900
H944        H  0.59841474  0.88233051  0.43495728     0.08800
H945        H  0.69886433  0.85125300  0.37184622     0.06300
H946        H  0.59693302  0.80540956  0.32515699     0.06200
O947        O  0.71138292  0.98447195  0.45180985    -0.72900
O948        O  0.65873528  0.92395886  0.04402223    -0.73900
O949        O  0.71143844  0.98521814  0.04419763    -0.62500
O950        O  0.65799557  0.92412003  0.45338650    -0.70900
O951        O  0.70256716  0.88028423  0.45252787    -0.70400
O952        O  0.75622200  0.94167578  0.04349039    -0.61700
O953        O  0.70361246  0.88047315  0.04465875    -0.74200
O954        O  0.75584969  0.94055347  0.45249263    -0.73000
Cu955      Cu  0.68342739  0.95609574  0.49837290     1.04600
Cu956      Cu  0.73109986  0.90921661  0.49829955     1.04300
C957        C  0.74197220  0.97192520  0.43756678     0.93300
C958        C  0.67268256  0.89230096  0.05834370     0.92500
C959        C  0.74222459  0.97319804  0.05819161     0.84600
C960        C  0.67159483  0.89237006  0.43900470     0.90900
C961        C  0.31807290  0.82790174  0.11731298     0.03200
C962        C  0.29958228  0.84363301  0.15320147    -0.13000
C963        C  0.26150529  0.84123481  0.15663337     0.00700
C964        C  0.24190654  0.81942584  0.12604163    -0.11500
C965        C  0.26006465  0.80103075  0.09176133     0.03200
C966        C  0.29779082  0.80616122  0.08695799    -0.10900
H967        H  0.31470037  0.85802146  0.17866214     0.08800
H968        H  0.21255650  0.81685445  0.12877143     0.06300
H969        H  0.31099981  0.79387624  0.05875901     0.06200
C970        C  0.59411349  0.84412537  0.11707061     0.03200
C971        C  0.61446765  0.86537376  0.08653597    -0.13000
C972        C  0.65240945  0.86890524  0.09025607     0.00700
C973        C  0.67063563  0.84937581  0.12370622    -0.11500
C974        C  0.65092085  0.82786230  0.15443002     0.03200
C975        C  0.61273101  0.82679371  0.15190348    -0.10900
H976        H  0.60098577  0.87866723  0.05910123     0.08800
H977        H  0.70008299  0.85092717  0.12577974     0.06300
H978        H  0.59759028  0.81244670  0.17733634     0.06200
O979        O  0.75340435  0.75656942  0.20376706    -0.72900
O980        O  0.70017602  0.81767251  0.29540420    -0.73900
O981        O  0.75346843  0.75750292  0.29427337    -0.62500
O982        O  0.70071921  0.81784318  0.20281402    -0.70900
O983        O  0.65590997  0.77432460  0.20326708    -0.70400
O984        O  0.70894785  0.71358398  0.29504280    -0.61700
O985        O  0.65575016  0.77372193  0.29448014    -0.74200
O986        O  0.70849186  0.71311139  0.20300873    -0.73000
Cu987      Cu  0.72838643  0.78906123  0.24902787     1.04600
Cu988      Cu  0.68072047  0.74216167  0.24892029     1.04300
C989        C  0.73952177  0.72480806  0.18954984     0.93300
C990        C  0.66962072  0.80504289  0.30964679     0.92500
C991        C  0.73982164  0.72584552  0.30869470     0.84600
C992        C  0.67004740  0.80574575  0.18855378     0.90900
O993        O  0.25349367  0.74555560  0.04599270    -0.72900
O994        O  0.19995927  0.68414600  0.45484415    -0.73900
O995        O  0.25352252  0.74419756  0.45537214    -0.62500
O996        O  0.20030392  0.68475527  0.04755413    -0.70900
O997        O  0.15569977  0.72848127  0.04661742    -0.70800
O998        O  0.20911787  0.78823290  0.45436922    -0.61700
O999        O  0.15566117  0.72824648  0.45528072    -0.74200
O1000       O  0.20872640  0.78917978  0.04646071    -0.73000
Cu1001     Cu  0.22825335  0.71297644  0.50097846     1.04600
Cu1002     Cu  0.18076348  0.76005428  0.50067703     1.04300
C1003       C  0.23970941  0.77740860  0.06005529     0.93300
C1004       C  0.16945734  0.69675851  0.44042172     0.92500
C1005       C  0.23995776  0.77585665  0.44077123     0.84600
C1006       C  0.16971468  0.69718847  0.06178912     0.90900
C1007       C  0.09422234  0.66039251  0.13529165     0.03200
C1008       C  0.11462698  0.97150303  0.16483362    -0.13000
C1009       C  0.15239554  0.96726549  0.16016414     0.00700
C1010       C  0.17038301  0.98652704  0.12635990    -0.11500
C1011       C  0.15061794  0.67567128  0.09649337     0.03200
C1012       C  0.11252216  0.67821571  0.10050646    -0.10900
H1013       H  0.10124691  0.95794975  0.19219248     0.08800
H1014       H  0.19972739  0.98407404  0.12342055     0.06300
H1015       H  0.09713172  0.69382182  0.07619025     0.06200
C1016       C  0.81806278  0.67492097  0.13200580     0.03200
C1017       C  0.79750669  0.69585430  0.16284260    -0.13000
C1018       C  0.75984272  0.70123045  0.15781156     0.00700
C1019       C  0.74175448  0.68318584  0.12328127    -0.11500
C1020       C  0.76144810  0.99514465  0.09245174     0.03200
C1021       C  0.79959222  0.99324581  0.09564158    -0.10900
H1022       H  0.81036309  0.70745198  0.19159947     0.08800
H1023       H  0.71239478  0.68565007  0.12057076     0.06300
H1024       H  0.81466659  0.97981203  0.06957110     0.06200
C1025       C  0.91621152  0.96983009  0.12344634    -0.11300
C1026       C  0.93583929  0.66552632  0.14546370     0.15200
C1027       C  0.91628762  0.69624603  0.16526597     0.02100
C1028       C  0.87866897  0.69936186  0.15877135    -0.15700
C1029       C  0.85858491  0.66989950  0.13746970    -0.10500
C1030       C  0.87808455  0.97005663  0.12213321     0.08800
C1031       C  0.97649876  0.66416482  0.14523780     0.09900
S1032       S  0.93731853  0.73152920  0.20078786    -0.24800
H1033       H  0.86520587  0.72509815  0.17124313     0.20100
S1034       S  0.85689016  0.92524828  0.10441369    -0.30500
H1035       H  0.93066833  0.94585594  0.10832858     0.10400
C1036       C  0.99612610  0.96364464  0.15703856     0.03700
C1037       C  0.03415451  0.96311595  0.15259884    -0.12800
C1038       C  0.05375066  0.66327947  0.14007420    -0.08500
C1039       C  0.03406637  0.69814965  0.13211291     0.07100
C1040       C  0.99595643  0.69750363  0.13234553    -0.13600
S1041       S  0.97336586  0.92151256  0.17965871    -0.30500
H1042       H  0.04865356  0.93623256  0.15896133     0.11400
S1043       S  0.05539366  0.74515345  0.12484373    -0.27600
H1044       H  0.98130459  0.72382798  0.12370355     0.08600
H1045       H  0.82753870  0.92780171  0.13352622     0.27000
H1046       H  0.00490164  0.90018837  0.19018083     0.21800
H1047       H  0.08485389  0.73743947  0.15266658     0.27100
H1048       H  0.96441065  0.70609746  0.21637190     0.16000
C1049       C  0.41529499  0.86846290  0.12408626    -0.11300
C1050       C  0.43564581  0.83804760  0.10557278     0.15200
C1051       C  0.41681475  0.80551217  0.08838641     0.02100
C1052       C  0.37909366  0.80246798  0.09394625    -0.15700
C1053       C  0.35844347  0.83312894  0.11198836    -0.10500
C1054       C  0.37718064  0.86763600  0.12466051     0.08800
C1055       C  0.47625805  0.83990968  0.10696740     0.09900
S1056       S  0.43895335  0.76750495  0.05758792    -0.24800
H1057       H  0.36591670  0.77581949  0.08346133     0.20100
S1058       S  0.35482786  0.91294143  0.13834635    -0.30500
H1059       H  0.42917262  0.89375122  0.13722931     0.10400
C1060       C  0.49596791  0.87284828  0.09252318     0.03700
C1061       C  0.53394501  0.87382509  0.09760330    -0.12800
C1062       C  0.55351730  0.84124612  0.11295799    -0.08500
C1063       C  0.53365360  0.80710490  0.12392446     0.07100
C1064       C  0.49558076  0.80785135  0.12347309    -0.13600
S1065       S  0.47346040  0.91298929  0.06552180    -0.30500
H1066       H  0.54838687  0.90027357  0.08923180     0.11400
S1067       S  0.55448213  0.76042310  0.13489290    -0.27600
H1068       H  0.48084519  0.78229190  0.13441002     0.08600
H1069       H  0.32558342  0.90753431  0.10953614     0.27000
H1070       H  0.50511876  0.93335234  0.05333892     0.21800
H1071       H  0.58341894  0.76563160  0.10564094     0.27100
H1072       H  0.46612089  0.79179956  0.04009696     0.16000
C1073       C  0.49662381  0.82397726  0.42153610    -0.11300
C1074       C  0.47592794  0.83459365  0.38524448     0.15200
C1075       C  0.49395410  0.84797348  0.34776850     0.02100
C1076       C  0.53200772  0.85081460  0.34750674    -0.15700
C1077       C  0.55287895  0.83990068  0.38358466    -0.10500
C1078       C  0.53480650  0.82594685  0.42095254     0.08800
C1079       C  0.43562912  0.83157919  0.38727329     0.09900
S1080       S  0.47000717  0.86172045  0.29917213    -0.24800
H1081       H  0.54554039  0.86146298  0.31871202     0.20100
S1082       S  0.55870687  0.80895788  0.46830602    -0.30500
H1083       H  0.48290707  0.81347123  0.45028176     0.10400
C1084       C  0.41783062  0.79519924  0.38421856     0.03700
C1085       C  0.37958128  0.79380637  0.38398320    -0.12800
C1086       C  0.35865787  0.82809148  0.38659454    -0.08500
C1087       C  0.37668488  0.86444092  0.39099736     0.07100
C1088       C  0.41484652  0.86578678  0.39082320    -0.13600
S1089       S  0.44385795  0.75072635  0.37853814    -0.30500
H1090       H  0.36582886  0.76600016  0.38060526     0.11400
S1091       S  0.35271372  0.91001672  0.39786540    -0.27600
H1092       H  0.42851874  0.89373072  0.39355733     0.08600
H1093       H  0.58907714  0.79413563  0.44596820     0.27000
H1094       H  0.41398160  0.72535088  0.37375720     0.21800
H1095       H  0.32281911  0.89406741  0.42012633     0.27100
H1096       H  0.44118053  0.83502290  0.30372450     0.16000
C1097       C  0.99690279  0.67749812  0.32794269    -0.11300
C1098       C  0.97591267  0.66691981  0.36399609     0.15200
C1099       C  0.99365322  0.98637205  0.40148927     0.02100
C1100       C  0.03170272  0.98341626  0.40213218    -0.15700
C1101       C  0.05284090  0.66115917  0.36636180    -0.10500
C1102       C  0.03505744  0.67525588  0.32885512     0.08800
C1103       C  0.93560966  0.67013564  0.36159178     0.09900
S1104       S  0.96935295  0.97209152  0.44964096    -0.24800
H1105       H  0.04502003  0.97252214  0.43096993     0.20100
S1106       S  0.05930770  0.69195707  0.28164189    -0.30500
H1107       H  0.98343080  0.68813264  0.29908569     0.10400
C1108       C  0.91793170  0.70671114  0.36193608     0.03700
C1109       C  0.87967481  0.70824920  0.36272948    -0.12800
C1110       C  0.85861715  0.67394958  0.36278853    -0.08500
C1111       C  0.87653378  0.97073481  0.36021963     0.07100
C1112       C  0.91466895  0.96924783  0.36029101    -0.13600
S1113       S  0.94406970  0.75139368  0.36346517    -0.30500
H1114       H  0.86605276  0.73624917  0.36449819     0.11400
S1115       S  0.85245469  0.92500858  0.35552672    -0.27600
H1116       H  0.92821605  0.94114269  0.35919341     0.08600
H1117       H  0.08948535  0.70693777  0.30423901     0.27000
H1118       H  0.91429660  0.77719875  0.36141705     0.21800
H1119       H  0.82287842  0.94016401  0.33198666     0.27100
H1120       H  0.94068629  0.99901532  0.44520694     0.16000
C1121       C  0.09313797  0.65786122  0.86961985     0.03200
C1122       C  0.11287574  0.96782537  0.84056553    -0.13000
C1123       C  0.15107797  0.96560869  0.84316890     0.00700
C1124       C  0.16943095  0.98586258  0.87606375    -0.11500
C1125       C  0.14999318  0.67514798  0.90608486     0.03200
C1126       C  0.11188441  0.67792216  0.90242247    -0.10900
H1127       H  0.09852404  0.95208173  0.81536801     0.08800
H1128       H  0.19887068  0.98413063  0.87815415     0.06300
H1129       H  0.09668289  0.69571758  0.92512102     0.06200
C1130       C  0.81833151  0.67729086  0.86686267     0.03200
C1131       C  0.79961116  0.99082459  0.89985522    -0.13000
C1132       C  0.76147564  0.99351251  0.90340665     0.00700
C1133       C  0.74202719  0.68280854  0.87352334    -0.11500
C1134       C  0.76037383  0.70301399  0.84073828     0.03200
C1135       C  0.79852659  0.70063658  0.83793689    -0.10900
H1136       H  0.81484517  0.97354385  0.92295628     0.08800
H1137       H  0.71258953  0.68458376  0.87562237     0.06300
H1138       H  0.81274354  0.71587954  0.81229674     0.06200
O1139       O  0.25625933  0.89435535  0.70605080    -0.72900
O1140       O  0.20263889  0.95502318  0.79756457    -0.73900
O1141       O  0.25594444  0.89487047  0.79716064    -0.62500
O1142       O  0.20366625  0.95538598  0.70543853    -0.70900
O1143       O  0.15886931  0.91178664  0.70568665    -0.70400
O1144       O  0.21155871  0.85086036  0.79756669    -0.61700
O1145       O  0.15814517  0.91110451  0.79633194    -0.74200
O1146       O  0.21159203  0.85068023  0.70507344    -0.73000
Cu1147     Cu  0.23117025  0.92643097  0.75155411     1.04600
Cu1148     Cu  0.18358781  0.87944410  0.75112592     1.04300
C1149       C  0.24228344  0.86292753  0.69106440     0.93300
C1150       C  0.17170418  0.94277230  0.81100030     0.92500
C1151       C  0.24208112  0.86345267  0.81198322     0.84600
C1152       C  0.17277373  0.94356048  0.69164081     0.90900
C1153       C  0.31837657  0.82494390  0.88285871     0.03200
C1154       C  0.29963192  0.84495372  0.85007620    -0.13000
C1155       C  0.26154976  0.84188512  0.84621958     0.00700
C1156       C  0.24215895  0.81891368  0.87586114    -0.11500
C1157       C  0.26053131  0.79868125  0.90866526     0.03200
C1158       C  0.29867826  0.80126714  0.91156209    -0.10900
H1159       H  0.31484479  0.86255427  0.82726023     0.08800
H1160       H  0.21274043  0.81694245  0.87360168     0.06300
H1161       H  0.31297908  0.78590187  0.93705428     0.06200
C1162       C  0.59320305  0.84318421  0.88068166     0.03200
C1163       C  0.61283117  0.86667425  0.90975564    -0.13000
C1164       C  0.65101889  0.86926398  0.90701705     0.00700
C1165       C  0.66944937  0.84920517  0.87405776    -0.11500
C1166       C  0.65012190  0.82641846  0.84410099     0.03200
C1167       C  0.61205215  0.82328245  0.84787043    -0.10900
H1168       H  0.59841499  0.88233079  0.93495707     0.08800
H1169       H  0.69886452  0.85125283  0.87184624     0.06300
H1170       H  0.59693317  0.80540926  0.82515731     0.06200
O1171       O  0.71138324  0.98447207  0.95180987    -0.72900
O1172       O  0.65873502  0.92395873  0.54402226    -0.73900
O1173       O  0.71143837  0.98521797  0.54419764    -0.62500
O1174       O  0.65799588  0.92412015  0.95338632    -0.70900
O1175       O  0.70256744  0.88028431  0.95252768    -0.70400
O1176       O  0.75622191  0.94167558  0.54349043    -0.61700
O1177       O  0.70361227  0.88047309  0.54465889    -0.74200
O1178       O  0.75585002  0.94055357  0.95249255    -0.73000
Cu1179     Cu  0.68342763  0.95609588  0.99837285     1.04600
Cu1180     Cu  0.73110008  0.90921674  0.99829940     1.04300
C1181       C  0.74197250  0.97192531  0.93756673     0.93300
C1182       C  0.67268230  0.89230086  0.55834375     0.92500
C1183       C  0.74222456  0.97319789  0.55819156     0.84600
C1184       C  0.67159508  0.89237013  0.93900457     0.90900
C1185       C  0.31807278  0.82790173  0.61731271     0.03200
C1186       C  0.29958214  0.84363288  0.65320122    -0.13000
C1187       C  0.26150519  0.84123465  0.65663319     0.00700
C1188       C  0.24190644  0.81942566  0.62604146    -0.11500
C1189       C  0.26006456  0.80103063  0.59176113     0.03200
C1190       C  0.29779073  0.80616116  0.58695772    -0.10900
H1191       H  0.31470033  0.85802135  0.67866206     0.08800
H1192       H  0.21255646  0.81685426  0.62877127     0.06300
H1193       H  0.31099969  0.79387622  0.55875881     0.06200
C1194       C  0.59411336  0.84412524  0.61707091     0.03200
C1195       C  0.61446743  0.86537360  0.58653609    -0.13000
C1196       C  0.65240925  0.86890510  0.59025616     0.00700
C1197       C  0.67063546  0.84937584  0.62370638    -0.11500
C1198       C  0.65092077  0.82786233  0.65443027     0.03200
C1199       C  0.61273093  0.82679363  0.65190376    -0.10900
H1200       H  0.60098563  0.87866689  0.55910160     0.08800
H1201       H  0.70008286  0.85092727  0.62577988     0.06300
H1202       H  0.59759027  0.81244655  0.67733660     0.06200
O1203       O  0.75340433  0.75656927  0.70376693    -0.72900
O1204       O  0.70017618  0.81767222  0.79540428    -0.73900
O1205       O  0.75346847  0.75750273  0.79427322    -0.62500
O1206       O  0.70071919  0.81784309  0.70281415    -0.70900
O1207       O  0.65590999  0.77432445  0.70326713    -0.70400
O1208       O  0.70894788  0.71358379  0.79504280    -0.61700
O1209       O  0.65575023  0.77372175  0.79448019    -0.74200
O1210       O  0.70849184  0.71311124  0.70300874    -0.73000
Cu1211     Cu  0.72838644  0.78906102  0.74902783     1.04600
Cu1212     Cu  0.68072048  0.74216148  0.74892032     1.04300
C1213       C  0.73952172  0.72480790  0.68954979     0.93300
C1214       C  0.66962085  0.80504267  0.80964688     0.92500
C1215       C  0.73982169  0.72584536  0.80869464     0.84600
C1216       C  0.67004737  0.80574568  0.68855393     0.90900
O1217       O  0.25349352  0.74555546  0.54599252    -0.72900
O1218       O  0.19995953  0.68414619  0.95484413    -0.73900
O1219       O  0.25352277  0.74419775  0.95537229    -0.62500
O1220       O  0.20030365  0.68475515  0.54755413    -0.70900
O1221       O  0.15569949  0.72848115  0.54661742    -0.70800
O1222       O  0.20911812  0.78823309  0.95436938    -0.61700
O1223       O  0.15566145  0.72824668  0.95528072    -0.74200
O1224       O  0.20872626  0.78917966  0.54646056    -0.73000
Cu1225     Cu  0.22825362  0.71297658  0.00097854     1.04600
Cu1226     Cu  0.18076375  0.76005443  0.00067710     1.04300
C1227       C  0.23970929  0.77740849  0.56005509     0.93300
C1228       C  0.16945760  0.69675871  0.94042170     0.92500
C1229       C  0.23995798  0.77585679  0.94077132     0.84600
C1230       C  0.16971444  0.69718838  0.56178916     0.90900
C1231       C  0.09422230  0.66039268  0.63529199     0.03200
C1232       C  0.11462688  0.97150314  0.66483369    -0.13000
C1233       C  0.15239544  0.96726560  0.66016416     0.00700
C1234       C  0.17038292  0.98652715  0.62635993    -0.11500
C1235       C  0.15061778  0.67567132  0.59649352     0.03200
C1236       C  0.11252204  0.67821580  0.60050673    -0.10900
H1237       H  0.10124685  0.95794990  0.69219245     0.08800
H1238       H  0.19972728  0.98407414  0.62342058     0.06300
H1239       H  0.09713152  0.69382190  0.57619048     0.06200
C1240       C  0.81806282  0.67492105  0.63200572     0.03200
C1241       C  0.79750662  0.69585416  0.66284257    -0.13000
C1242       C  0.75984267  0.70123028  0.65781152     0.00700
C1243       C  0.74175441  0.68318584  0.62328109    -0.11500
C1244       C  0.76144814  0.99514456  0.59245160     0.03200
C1245       C  0.79959229  0.99324567  0.59564137    -0.10900
H1246       H  0.81036306  0.70745183  0.69159957     0.08800
H1247       H  0.71239499  0.68565010  0.62057051     0.06300
H1248       H  0.81466651  0.97981206  0.56957116     0.06200
C1249       C  0.91621148  0.96983005  0.62344645    -0.11300
C1250       C  0.93583937  0.66552650  0.64546418     0.15200
C1251       C  0.91628762  0.69624624  0.66526628     0.02100
C1252       C  0.87866896  0.69936215  0.65877139    -0.15700
C1253       C  0.85858499  0.66989968  0.63746968    -0.10500
C1254       C  0.87808453  0.97005657  0.62213326     0.08800
C1255       C  0.97649883  0.66416501  0.64523851     0.09900
S1256       S  0.93731841  0.73152955  0.70078818    -0.24800
H1257       H  0.86520594  0.72509820  0.67124287     0.20100
S1258       S  0.85689007  0.92524828  0.60441371    -0.30500
H1259       H  0.93066834  0.94585579  0.60832873     0.10400
C1260       C  0.99612600  0.96364469  0.65703890     0.03700
C1261       C  0.03415442  0.96311602  0.65259914    -0.12800
C1262       C  0.05375068  0.66327964  0.64007470    -0.08500
C1263       C  0.03406643  0.69814985  0.63211351     0.07100
C1264       C  0.99595653  0.69750377  0.63234622    -0.13600
S1265       S  0.97336581  0.92151250  0.67965901    -0.30500
H1266       H  0.04865344  0.93623269  0.65896162     0.11400
S1267       S  0.05539381  0.74515358  0.62484410    -0.27600
H1268       H  0.98130453  0.72382837  0.62370408     0.08600
H1269       H  0.82753864  0.92780169  0.63352629     0.27000
H1270       H  0.00490166  0.90018871  0.69018186     0.21800
H1271       H  0.08485405  0.73743961  0.65266694     0.27100
H1272       H  0.96441050  0.70609786  0.71637237     0.16000
C1273       C  0.41529481  0.86846279  0.62408659    -0.11300
C1274       C  0.43564570  0.83804758  0.60557306     0.15200
C1275       C  0.41681471  0.80551222  0.58838636     0.02100
C1276       C  0.37909359  0.80246804  0.59394600    -0.15700
C1277       C  0.35844335  0.83312892  0.61198821    -0.10500
C1278       C  0.37718049  0.86763591  0.62466063     0.08800
C1279       C  0.47625791  0.83990967  0.60696779     0.09900
S1280       S  0.43895348  0.76750516  0.55758770    -0.24800
H1281       H  0.36591666  0.77581963  0.58346085     0.20100
S1282       S  0.35482773  0.91294132  0.63834640    -0.30500
H1283       H  0.42917246  0.89375121  0.63722986     0.10400
C1284       C  0.49596779  0.87284824  0.59252352     0.03700
C1285       C  0.53394486  0.87382495  0.59760367    -0.12800
C1286       C  0.55351715  0.84124603  0.61295843    -0.08500
C1287       C  0.53365341  0.80710484  0.62392498     0.07100
C1288       C  0.49558059  0.80785132  0.62347348    -0.13600
S1289       S  0.47346033  0.91298935  0.56552220    -0.30500
H1290       H  0.54838686  0.90027360  0.58923209     0.11400
S1291       S  0.55448182  0.76042295  0.63489328    -0.27600
H1292       H  0.48084497  0.78229184  0.63441027     0.08600
H1293       H  0.32558343  0.90753426  0.60953599     0.27000
H1294       H  0.50511870  0.93335250  0.55333956     0.21800
H1295       H  0.58341882  0.76563154  0.60564163     0.27100
H1296       H  0.46612121  0.79179978  0.54009719     0.16000
C1297       C  0.49662392  0.82397799  0.92153612    -0.11300
C1298       C  0.47592816  0.83459393  0.88524425     0.15200
C1299       C  0.49395443  0.84797315  0.84776811     0.02100
C1300       C  0.53200803  0.85081432  0.84750649    -0.15700
C1301       C  0.55287916  0.83990086  0.88358467    -0.10500
C1302       C  0.53480661  0.82594752  0.92095271     0.08800
C1303       C  0.43562934  0.83157944  0.88727284     0.09900
S1304       S  0.47000762  0.86171943  0.79917145    -0.24800
H1305       H  0.54554082  0.86146238  0.81871155     0.20100
S1306       S  0.55870678  0.80895919  0.96830664    -0.30500
H1307       H  0.48290708  0.81347231  0.95028188     0.10400
C1308       C  0.41783093  0.79519941  0.88421828     0.03700
C1309       C  0.37958161  0.79380649  0.88398297    -0.12800
C1310       C  0.35865808  0.82809150  0.88659421    -0.08500
C1311       C  0.37668501  0.86444104  0.89099673     0.07100
C1312       C  0.41484665  0.86578699  0.89082257    -0.13600
S1313       S  0.44385838  0.75072652  0.87853848    -0.30500
H1314       H  0.36582918  0.76600007  0.88060520     0.11400
S1315       S  0.35271367  0.91001682  0.89786416    -0.27600
H1316       H  0.42851882  0.89373102  0.89355661     0.08600
H1317       H  0.58907703  0.79413642  0.94596920     0.27000
H1318       H  0.41398208  0.72535097  0.87375755     0.21800
H1319       H  0.32281920  0.89406760  0.92012545     0.27100
H1320       H  0.44118071  0.83502228  0.80372427     0.16000
C1321       C  0.99690297  0.67749816  0.82794235    -0.11300
C1322       C  0.97591283  0.66692023  0.86399591     0.15200
C1323       C  0.99365348  0.98637253  0.90148899     0.02100
C1324       C  0.03170299  0.98341691  0.90213201    -0.15700
C1325       C  0.05284111  0.66115952  0.86636161    -0.10500
C1326       C  0.03505763  0.67525580  0.82885475     0.08800
C1327       C  0.93560979  0.67013584  0.86159149     0.09900
S1328       S  0.96935315  0.97209308  0.94964101    -0.24800
H1329       H  0.04502027  0.97252333  0.93096993     0.20100
S1330       S  0.05930789  0.69195632  0.78164125    -0.30500
H1331       H  0.98343100  0.68813232  0.79908527     0.10400
C1332       C  0.91793168  0.70671125  0.86193482     0.03700
C1333       C  0.87967478  0.70824919  0.86272828    -0.12800
C1334       C  0.85861724  0.67394950  0.86278839    -0.08500
C1335       C  0.87653400  0.97073465  0.86021927     0.07100
C1336       C  0.91466919  0.96924761  0.86029054    -0.13600
S1337       S  0.94406959  0.75139385  0.86346262    -0.30500
H1338       H  0.86605263  0.73624920  0.86449619     0.11400
S1339       S  0.85245487  0.92500844  0.85552612    -0.27600
H1340       H  0.92821616  0.94114266  0.85919284     0.08600
H1341       H  0.08948564  0.70693714  0.80423809     0.27000
H1342       H  0.91429641  0.77719882  0.86141512     0.21800
H1343       H  0.82287871  0.94016400  0.83198597     0.27100
H1344       H  0.94068687  0.99901730  0.94520661     0.16000
loop_ 
_geom_bond_atom_site_label_1 
_geom_bond_atom_site_label_2 
_geom_bond_distance 
_geom_bond_site_symmetry_2 
_ccdc_geom_bond_type 
C1            C6   1.405   1_565  A
C1          C898   1.404       .  A
C1          C205   1.487       .  S
C2            C3   1.406       .  A
C2          C449   1.404       .  A
C2            H7   1.084       .  S
C3            C4   1.403       .  A
C3           C30   1.474       .  S
C4          C453   1.404       .  A
C4            H8   1.084       .  S
C5            C6   1.406       .  A
C5          C900   1.404   1_545  A
C5          C108   1.478       .  S
C6            H9   1.084       .  S
C10          C15   1.404       .  A
C10         C907   1.406   1_545  A
C10         C214   1.488       .  S
C11          C12   1.407       .  A
C11         C458   1.406       .  A
C11          H16   1.084       .  S
C12         C461   1.402       .  A
C12          C61   1.476       .  S
C13          C14   1.401       .  A
C13         C908   1.402   1_545  A
C13          H17   1.084       .  S
C14          C15   1.405       .  A
C14          C95   1.471       .  S
C15          H18   1.084       .  S
O19         Cu27   2.008       .  S
O19          C29   1.279       .  A
O20         Cu27   2.020       .  S
O20          C30   1.280       .  A
O21         Cu27   1.997       .  S
O21          C31   1.276       .  A
O22         Cu27   2.010       .  S
O22          C32   1.277       .  A
O23         Cu28   2.007       .  S
O23          C32   1.278       .  A
O24         Cu28   2.020       .  S
O24          C31   1.280       .  A
O25         Cu28   2.000       .  S
O25          C30   1.276       .  A
O26         Cu28   2.014       .  S
O26          C29   1.278       .  A
Cu27        Cu28   2.375       .  S
C29          C67   1.478       .  S
C31          C35   1.476       .  S
C32         C113   1.473       .  S
C33          C34   1.405       .  A
C33          C38   1.404       .  A
C33         C190   1.487       .  S
C34          C35   1.407       .  A
C34          H39   1.084       .  S
C35          C36   1.403       .  A
C36          C37   1.402       .  A
C36          H40   1.084       .  S
C37          C38   1.406       .  A
C37         C109   1.473       .  S
C38          H41   1.084       .  S
C42          C43   1.405       .  A
C42          C47   1.404       .  A
C42         C181   1.487       .  S
C43          C44   1.407       .  A
C43          H48   1.084       .  S
C44          C45   1.403       .  A
C44          C64   1.474       .  S
C45          C46   1.403       .  A
C45          H49   1.084       .  S
C46          C47   1.406       .  A
C46          C94   1.477       .  S
C47          H50   1.084       .  S
O51         Cu59   2.019       .  S
O51          C61   1.280       .  A
O52        Cu283   2.008   1_554  S
O52          C62   1.279       .  A
O53        Cu283   2.014   1_554  S
O53          C63   1.278       .  A
O54         Cu59   2.001       .  S
O54          C64   1.276       .  A
O55         Cu60   2.020       .  S
O55          C64   1.280       .  A
O56        Cu284   2.009   1_554  S
O56          C63   1.279       .  A
O57        Cu284   2.012   1_554  S
O57          C62   1.277       .  A
O58         Cu60   1.997       .  S
O58          C61   1.276       .  A
Cu59        O276   2.008       .  S
Cu59        O277   2.014       .  S
Cu59        Cu60   2.374       .  S
Cu60        O280   2.009       .  S
Cu60        O281   2.012       .  S
C62          C76   1.474       .  S
C63         C124   1.478       .  S
C65          C66   1.408       .  A
C65          C70   1.410       .  A
C65         C157   1.501       .  S
C66          C67   1.404       .  A
C66          H71   1.082       .  S
C67          C68   1.403       .  A
C68          C69   1.402       .  A
C68          H72   1.084       .  S
C69          C70   1.404       .  A
C69         C107   1.474       .  S
C70          H73   1.083       .  S
C74          C75   1.408       .  A
C74          C79   1.408       .  A
C74         C166   1.498       .  S
C75          C76   1.402       .  A
C75          H80   1.083       .  S
C76          C77   1.403       .  A
C77          C78   1.404       .  A
C77          H81   1.084       .  S
C78          C79   1.404       .  A
C78          C96   1.477       .  S
C79          H82   1.082       .  S
O83         Cu91   2.010       .  S
O83          C93   1.279       .  A
O84         Cu91   2.022       .  S
O84          C94   1.280       .  A
O85         Cu91   1.995       .  S
O85          C95   1.275       .  A
O86         Cu91   2.012       .  S
O86          C96   1.278       .  A
O87         Cu92   2.010       .  S
O87          C96   1.279       .  A
O88         Cu92   2.017       .  S
O88          C95   1.280       .  A
O89         Cu92   1.998       .  S
O89          C94   1.276       .  A
O90         Cu92   2.011       .  S
O90          C93   1.277       .  A
Cu91        Cu92   2.375       .  S
C93         C122   1.473       .  S
O97        Cu329   2.010       .  S
O97         C107   1.278       .  A
O98        Cu105   2.021       .  S
O98         C108   1.280       .  A
O99        Cu105   2.000       .  S
O99         C109   1.276       .  A
O100       Cu329   2.017       .  S
O100        C110   1.279       .  A
O101       Cu330   2.010       .  S
O101        C110   1.278       .  A
O102       Cu106   2.018       .  S
O102        C109   1.280       .  A
O103       Cu106   2.001       .  S
O103        C108   1.276       .  A
O104       Cu330   2.013       .  S
O104        C107   1.278       .  A
Cu105       O321   2.010       .  S
Cu105       O324   2.017       .  S
Cu105      Cu106   2.374       .  S
Cu106       O325   2.010       .  S
Cu106       O328   2.013       .  S
C110        C115   1.480       .  S
C111        C116   1.409   1_565  A
C111       C1008   1.406       .  A
C111        C142   1.496       .  S
C112        C113   1.401       .  A
C112        C559   1.406       .  A
C112        H117   1.084       .  S
C113        C114   1.403       .  A
C114        C563   1.405       .  A
C114        H118   1.084       .  S
C115        C116   1.406       .  A
C115       C1010   1.405   1_545  A
C116        H119   1.082       .  S
C120        C121   1.411       .  A
C120       C1021   1.410   1_545  A
C120        C133   1.507       .  S
C121        C122   1.403       .  A
C121        H126   1.082       .  S
C122        C123   1.401       .  A
C123       C1020   1.402   1_545  A
C123        H127   1.084       .  S
C124        C125   1.405       .  A
C124        C571   1.402       .  A
C125        C568   1.410       .  A
C125        H128   1.081       .  S
C129        C134   1.400       .  A
C129        C578   1.403       .  A
C129        H139   1.083       .  S
C130        C131   1.413   1_565  A
C130       C1025   1.403       .  A
C130        C135   1.493       .  S
C131        C132   1.399       .  A
C131        S136   1.806       .  S
C132        C133   1.412       .  A
C132        H137   1.081       .  S
C133       C1030   1.424   1_545  A
C134        C581   1.424       .  A
C134        S138   1.805       .  S
C135        C144   1.405   1_565  A
C135       C1036   1.413       .  A
S136        H152   1.407       .  S
S138        H149   1.407       .  S
C140        C141   1.403   1_655  A
C140        C583   1.413       .  A
C140        S145   1.809       .  S
C141        C590   1.409       .  A
C141        H146   1.082       .  S
C142        C143   1.417   1_565  A
C142       C1037   1.409       .  A
C143        C144   1.399   1_455  A
C143        S147   1.804       .  S
C144        H148   1.083       .  S
S145        H150   1.407   1_655  S
S147        H151   1.407       .  S
C153        C154   1.403       .  A
C153        C158   1.399       .  A
C153        H163   1.083       .  S
C154        C155   1.414       .  A
C154        C159   1.492       .  S
C155        C156   1.399       .  A
C155        S160   1.805       .  S
C156        C157   1.410       .  A
C156        H161   1.082       .  S
C157        C158   1.422       .  A
C158        S162   1.805       .  S
C159        C164   1.413       .  A
C159        C168   1.404       .  A
S160        H176   1.407       .  S
S162        H173   1.407       .  S
C164        C165   1.403       .  A
C164        S169   1.809       .  S
C165        C166   1.410       .  A
C165        H170   1.081       .  S
C166        C167   1.419       .  A
C167        C168   1.398       .  A
C167        S171   1.804       .  S
C168        H172   1.083       .  S
S169        H174   1.407       .  S
S171        H175   1.407       .  S
C177        C178   1.404       .  A
C177        C182   1.403       .  A
C177        H187   1.084       .  S
C178        C179   1.412       .  A
C178        C183   1.484       .  S
C179        C180   1.400       .  A
C179        S184   1.804       .  S
C180        C181   1.405       .  A
C180        H185   1.084       .  S
C181        C182   1.417       .  A
C182        S186   1.804       .  S
C183        C188   1.410       .  A
C183        C192   1.402       .  A
S184        H200   1.405       .  S
S186        H197   1.406       .  S
C188        C189   1.405       .  A
C188        S193   1.806       .  S
C189        C190   1.405       .  A
C189        H194   1.083       .  S
C190        C191   1.416       .  A
C191        C192   1.401       .  A
C191        S195   1.804       .  S
C192        H196   1.084       .  S
S193        H198   1.407       .  S
S195        H199   1.406       .  S
C201        C202   1.404       .  A
C201        C206   1.403   1_655  A
C201        H211   1.084       .  S
C202       C1099   1.413   1_545  A
C202        C207   1.485       .  S
C203        C204   1.400   1_655  A
C203        C650   1.413       .  A
C203        S208   1.805       .  S
C204        C653   1.404       .  A
C204        H209   1.084       .  S
C205        C206   1.417   1_565  A
C205       C1100   1.404       .  A
C206        S210   1.804       .  S
C207        C212   1.411       .  A
C207       C1112   1.402   1_545  A
S208        H224   1.406       .  S
S210        H221   1.406       .  S
C212        C213   1.405       .  A
C212        S217   1.806       .  S
C213        C214   1.406       .  A
C213        H218   1.083       .  S
C214       C1111   1.416   1_545  A
C215        C216   1.400       .  A
C215        C662   1.416       .  A
C215        S219   1.804       .  S
C216        C655   1.402       .  A
C216        H220   1.084       .  S
S217        H222   1.407       .  S
S219        H223   1.407       .  S
C225       C1122   1.404       .  A
C225        C230   1.405   1_565  A
C225        C429   1.487       .  S
C226        C673   1.404       .  A
C226        C227   1.406       .  A
C226        H231   1.084       .  S
C227        C228   1.403       .  A
C227        C254   1.474       .  S
C228        C677   1.404       .  A
C228        H232   1.084       .  S
C229       C1124   1.404   1_545  A
C229        C230   1.406       .  A
C229        C332   1.478       .  S
C230        H233   1.084       .  S
C234       C1131   1.406   1_545  A
C234        C239   1.404       .  A
C234        C438   1.488       .  S
C235        C682   1.406       .  A
C235        C236   1.407       .  A
C235        H240   1.084       .  S
C236        C685   1.402       .  A
C236        C285   1.476       .  S
C237       C1132   1.402   1_545  A
C237        C238   1.401       .  A
C237        H241   1.084       .  S
C238        C239   1.405       .  A
C238        C319   1.471       .  S
C239        H242   1.084       .  S
O243       Cu251   2.008       .  S
O243        C253   1.279       .  A
O244       Cu251   2.020       .  S
O244        C254   1.280       .  A
O245       Cu251   1.997       .  S
O245        C255   1.276       .  A
O246       Cu251   2.010       .  S
O246        C256   1.277       .  A
O247       Cu252   2.007       .  S
O247        C256   1.278       .  A
O248       Cu252   2.020       .  S
O248        C255   1.280       .  A
O249       Cu252   2.000       .  S
O249        C254   1.276       .  A
O250       Cu252   2.014       .  S
O250        C253   1.278       .  A
Cu251      Cu252   2.375       .  S
C253        C291   1.478       .  S
C255        C259   1.476       .  S
C256        C337   1.473       .  S
C257        C258   1.405       .  A
C257        C262   1.404       .  A
C257        C414   1.487       .  S
C258        C259   1.407       .  A
C258        H263   1.084       .  S
C259        C260   1.403       .  A
C260        C261   1.402       .  A
C260        H264   1.084       .  S
C261        C262   1.406       .  A
C261        C333   1.473       .  S
C262        H265   1.084       .  S
C266        C267   1.405       .  A
C266        C271   1.404       .  A
C266        C405   1.487       .  S
C267        C268   1.407       .  A
C267        H272   1.084       .  S
C268        C269   1.403       .  A
C268        C288   1.474       .  S
C269        C270   1.403       .  A
C269        H273   1.084       .  S
C270        C271   1.406       .  A
C270        C318   1.477       .  S
C271        H274   1.084       .  S
O275       Cu283   2.019       .  S
O275        C285   1.280       .  A
O276        C286   1.279       .  A
O277        C287   1.278       .  A
O278       Cu283   2.001       .  S
O278        C288   1.276       .  A
O279       Cu284   2.020       .  S
O279        C288   1.280       .  A
O280        C287   1.279       .  A
O281        C286   1.277       .  A
O282       Cu284   1.997       .  S
O282        C285   1.276       .  A
Cu283      Cu284   2.374       .  S
C286        C300   1.474       .  S
C287        C348   1.478       .  S
C289        C290   1.408       .  A
C289        C294   1.410       .  A
C289        C381   1.501       .  S
C290        C291   1.404       .  A
C290        H295   1.082       .  S
C291        C292   1.403       .  A
C292        C293   1.402       .  A
C292        H296   1.084       .  S
C293        C294   1.404       .  A
C293        C331   1.474       .  S
C294        H297   1.083       .  S
C298        C299   1.408       .  A
C298        C303   1.408       .  A
C298        C390   1.498       .  S
C299        C300   1.402       .  A
C299        H304   1.083       .  S
C300        C301   1.403       .  A
C301        C302   1.404       .  A
C301        H305   1.084       .  S
C302        C303   1.404       .  A
C302        C320   1.477       .  S
C303        H306   1.082       .  S
O307       Cu315   2.010       .  S
O307        C317   1.279       .  A
O308       Cu315   2.022       .  S
O308        C318   1.280       .  A
O309       Cu315   1.995       .  S
O309        C319   1.275       .  A
O310       Cu315   2.012       .  S
O310        C320   1.278       .  A
O311       Cu316   2.010       .  S
O311        C320   1.279       .  A
O312       Cu316   2.017       .  S
O312        C319   1.280       .  A
O313       Cu316   1.998       .  S
O313        C318   1.276       .  A
O314       Cu316   2.011       .  S
O314        C317   1.277       .  A
Cu315      Cu316   2.375       .  S
C317        C346   1.473       .  S
O321        C331   1.278       .  A
O322       Cu329   2.021   1_556  S
O322        C332   1.280       .  A
O323       Cu329   2.000   1_556  S
O323        C333   1.276       .  A
O324        C334   1.279       .  A
O325        C334   1.278       .  A
O326       Cu330   2.018   1_556  S
O326        C333   1.280       .  A
O327       Cu330   2.001   1_556  S
O327        C332   1.276       .  A
O328        C331   1.278       .  A
Cu329      Cu330   2.374       .  S
C334        C339   1.480       .  S
C335       C1232   1.406       .  A
C335        C340   1.409   1_565  A
C335        C366   1.496       .  S
C336        C783   1.406       .  A
C336        C337   1.401       .  A
C336        H341   1.084       .  S
C337        C338   1.403       .  A
C338        C787   1.405       .  A
C338        H342   1.084       .  S
C339       C1234   1.405   1_545  A
C339        C340   1.406       .  A
C340        H343   1.082       .  S
C344        C345   1.411       .  A
C344       C1245   1.410   1_545  A
C344        C357   1.507       .  S
C345        C346   1.403       .  A
C345        H350   1.082       .  S
C346        C347   1.401       .  A
C347       C1244   1.402   1_545  A
C347        H351   1.084       .  S
C348        C795   1.402       .  A
C348        C349   1.405       .  A
C349        C792   1.410       .  A
C349        H352   1.081       .  S
C353        C802   1.403       .  A
C353        C358   1.400       .  A
C353        H363   1.083       .  S
C354       C1249   1.403       .  A
C354        C355   1.413   1_565  A
C354        C359   1.493       .  S
C355        C356   1.399       .  A
C355        S360   1.806       .  S
C356        C357   1.412       .  A
C356        H361   1.081       .  S
C357       C1254   1.424   1_545  A
C358        C805   1.424       .  A
C358        S362   1.805       .  S
C359       C1260   1.413       .  A
C359        C368   1.405   1_565  A
S360        H376   1.407       .  S
S362        H373   1.407       .  S
C364        C807   1.413       .  A
C364        C365   1.403   1_655  A
C364        S369   1.809       .  S
C365        C814   1.409       .  A
C365        H370   1.082       .  S
C366       C1261   1.409       .  A
C366        C367   1.417   1_565  A
C367        C368   1.399   1_455  A
C367        S371   1.804       .  S
C368        H372   1.083       .  S
S369        H374   1.407   1_655  S
S371        H375   1.407       .  S
C377        C378   1.403       .  A
C377        C382   1.399       .  A
C377        H387   1.083       .  S
C378        C379   1.414       .  A
C378        C383   1.492       .  S
C379        C380   1.399       .  A
C379        S384   1.805       .  S
C380        C381   1.410       .  A
C380        H385   1.082       .  S
C381        C382   1.422       .  A
C382        S386   1.805       .  S
C383        C388   1.413       .  A
C383        C392   1.404       .  A
S384        H400   1.407       .  S
S386        H397   1.407       .  S
C388        C389   1.403       .  A
C388        S393   1.809       .  S
C389        C390   1.410       .  A
C389        H394   1.081       .  S
C390        C391   1.419       .  A
C391        C392   1.398       .  A
C391        S395   1.804       .  S
C392        H396   1.083       .  S
S393        H398   1.407       .  S
S395        H399   1.407       .  S
C401        C402   1.404       .  A
C401        C406   1.403       .  A
C401        H411   1.084       .  S
C402        C403   1.412       .  A
C402        C407   1.484       .  S
C403        C404   1.400       .  A
C403        S408   1.804       .  S
C404        C405   1.405       .  A
C404        H409   1.084       .  S
C405        C406   1.417       .  A
C406        S410   1.804       .  S
C407        C412   1.410       .  A
C407        C416   1.402       .  A
S408        H424   1.405       .  S
S410        H421   1.406       .  S
C412        C413   1.405       .  A
C412        S417   1.806       .  S
C413        C414   1.405       .  A
C413        H418   1.083       .  S
C414        C415   1.416       .  A
C415        C416   1.401       .  A
C415        S419   1.804       .  S
C416        H420   1.084       .  S
S417        H422   1.407       .  S
S419        H423   1.406       .  S
C425        C426   1.404       .  A
C425        C430   1.403   1_655  A
C425        H435   1.084       .  S
C426       C1323   1.413   1_545  A
C426        C431   1.485       .  S
C427        C874   1.413       .  A
C427        C428   1.400   1_655  A
C427        S432   1.805       .  S
C428        C877   1.404       .  A
C428        H433   1.084       .  S
C429       C1324   1.404       .  A
C429        C430   1.417   1_565  A
C430        S434   1.804       .  S
C431        C436   1.411       .  A
C431       C1336   1.402   1_545  A
S432        H448   1.406       .  S
S434        H445   1.406       .  S
C436        C437   1.405       .  A
C436        S441   1.806       .  S
C437        C438   1.406       .  A
C437        H442   1.083       .  S
C438       C1335   1.416   1_545  A
C439        C886   1.416       .  A
C439        C440   1.400       .  A
C439        S443   1.804       .  S
C440        C879   1.402       .  A
C440        H444   1.084       .  S
S441        H446   1.407       .  S
S443        H447   1.407       .  S
C449        C454   1.405       .  A
C449        C653   1.487       .  S
C450        C897   1.404       .  A
C450        C451   1.406       .  A
C450        H455   1.084       .  S
C451        C452   1.403       .  A
C451        C478   1.474       .  S
C452        C901   1.404       .  A
C452        H456   1.084       .  S
C453        C454   1.406       .  A
C453        C556   1.478       .  S
C454        H457   1.084       .  S
C458        C463   1.404       .  A
C458        C662   1.488       .  S
C459        C906   1.406       .  A
C459        C460   1.407       .  A
C459        H464   1.084       .  S
C460        C909   1.402       .  A
C460        C509   1.476       .  S
C461        C462   1.401       .  A
C461        H465   1.084       .  S
C462        C463   1.405       .  A
C462        C543   1.471       .  S
C463        H466   1.084       .  S
O467       Cu475   2.008       .  S
O467        C477   1.279       .  A
O468       Cu475   2.020       .  S
O468        C478   1.280       .  A
O469       Cu475   1.997       .  S
O469        C479   1.276       .  A
O470       Cu475   2.010       .  S
O470        C480   1.277       .  A
O471       Cu476   2.007       .  S
O471        C480   1.278       .  A
O472       Cu476   2.020       .  S
O472        C479   1.280       .  A
O473       Cu476   2.000       .  S
O473        C478   1.276       .  A
O474       Cu476   2.014       .  S
O474        C477   1.278       .  A
Cu475      Cu476   2.375       .  S
C477        C515   1.478       .  S
C479        C483   1.476       .  S
C480        C561   1.473       .  S
C481        C482   1.405       .  A
C481        C486   1.404       .  A
C481        C638   1.487       .  S
C482        C483   1.407       .  A
C482        H487   1.084       .  S
C483        C484   1.403       .  A
C484        C485   1.402       .  A
C484        H488   1.084       .  S
C485        C486   1.406       .  A
C485        C557   1.473       .  S
C486        H489   1.084       .  S
C490        C491   1.405       .  A
C490        C495   1.404       .  A
C490        C629   1.487       .  S
C491        C492   1.407       .  A
C491        H496   1.084       .  S
C492        C493   1.403       .  A
C492        C512   1.474       .  S
C493        C494   1.403       .  A
C493        H497   1.084       .  S
C494        C495   1.406       .  A
C494        C542   1.477       .  S
C495        H498   1.084       .  S
O499       Cu507   2.019       .  S
O499        C509   1.280       .  A
O500       Cu731   2.008   1_554  S
O500        C510   1.279       .  A
O501       Cu731   2.014   1_554  S
O501        C511   1.278       .  A
O502       Cu507   2.001       .  S
O502        C512   1.276       .  A
O503       Cu508   2.020       .  S
O503        C512   1.280       .  A
O504       Cu732   2.009   1_554  S
O504        C511   1.279       .  A
O505       Cu732   2.012   1_554  S
O505        C510   1.277       .  A
O506       Cu508   1.997       .  S
O506        C509   1.276       .  A
Cu507       O724   2.008       .  S
Cu507       O725   2.014       .  S
Cu507      Cu508   2.374       .  S
Cu508       O728   2.009       .  S
Cu508       O729   2.012       .  S
C510        C524   1.474       .  S
C511        C572   1.478       .  S
C513        C514   1.408       .  A
C513        C518   1.410       .  A
C513        C605   1.501       .  S
C514        C515   1.404       .  A
C514        H519   1.082       .  S
C515        C516   1.403       .  A
C516        C517   1.402       .  A
C516        H520   1.084       .  S
C517        C518   1.404       .  A
C517        C555   1.474       .  S
C518        H521   1.083       .  S
C522        C523   1.408       .  A
C522        C527   1.408       .  A
C522        C614   1.498       .  S
C523        C524   1.402       .  A
C523        H528   1.083       .  S
C524        C525   1.403       .  A
C525        C526   1.404       .  A
C525        H529   1.084       .  S
C526        C527   1.404       .  A
C526        C544   1.477       .  S
C527        H530   1.082       .  S
O531       Cu539   2.010       .  S
O531        C541   1.279       .  A
O532       Cu539   2.022       .  S
O532        C542   1.280       .  A
O533       Cu539   1.995       .  S
O533        C543   1.275       .  A
O534       Cu539   2.012       .  S
O534        C544   1.278       .  A
O535       Cu540   2.010       .  S
O535        C544   1.279       .  A
O536       Cu540   2.017       .  S
O536        C543   1.280       .  A
O537       Cu540   1.998       .  S
O537        C542   1.276       .  A
O538       Cu540   2.011       .  S
O538        C541   1.277       .  A
Cu539      Cu540   2.375       .  S
C541        C570   1.473       .  S
O545       Cu777   2.010       .  S
O545        C555   1.278       .  A
O546       Cu553   2.021       .  S
O546        C556   1.280       .  A
O547       Cu553   2.000       .  S
O547        C557   1.276       .  A
O548       Cu777   2.017       .  S
O548        C558   1.279       .  A
O549       Cu778   2.010       .  S
O549        C558   1.278       .  A
O550       Cu554   2.018       .  S
O550        C557   1.280       .  A
O551       Cu554   2.001       .  S
O551        C556   1.276       .  A
O552       Cu778   2.013       .  S
O552        C555   1.278       .  A
Cu553       O769   2.010       .  S
Cu553       O772   2.017       .  S
Cu553      Cu554   2.374       .  S
Cu554       O773   2.010       .  S
Cu554       O776   2.013       .  S
C558        C563   1.480       .  S
C559        C564   1.409       .  A
C559        C590   1.496       .  S
C560       C1007   1.406       .  A
C560        C561   1.401       .  A
C560        H565   1.084       .  S
C561        C562   1.403       .  A
C562       C1011   1.405       .  A
C562        H566   1.084       .  S
C563        C564   1.406       .  A
C564        H567   1.082       .  S
C568        C569   1.411       .  A
C568        C581   1.507       .  S
C569        C570   1.403       .  A
C569        H574   1.082       .  S
C570        C571   1.401       .  A
C571        H575   1.084       .  S
C572       C1019   1.402       .  A
C572        C573   1.405       .  A
C573       C1016   1.410       .  A
C573        H576   1.081       .  S
C577       C1026   1.403       .  A
C577        C582   1.400       .  A
C577        H587   1.083       .  S
C578        C579   1.413       .  A
C578        C583   1.493       .  S
C579        C580   1.399       .  A
C579        S584   1.806       .  S
C580        C581   1.412       .  A
C580        H585   1.081       .  S
C582       C1029   1.424       .  A
C582        S586   1.805       .  S
C583        C592   1.405       .  A
S584        H600   1.407       .  S
S586        H597   1.407       .  S
C588       C1031   1.413       .  A
C588        C589   1.403   1_655  A
C588        S593   1.809       .  S
C589       C1038   1.409       .  A
C589        H594   1.082       .  S
C590        C591   1.417       .  A
C591        C592   1.399   1_455  A
C591        S595   1.804       .  S
C592        H596   1.083       .  S
S593        H598   1.407   1_655  S
S595        H599   1.407       .  S
C601        C602   1.403       .  A
C601        C606   1.399       .  A
C601        H611   1.083       .  S
C602        C603   1.414       .  A
C602        C607   1.492       .  S
C603        C604   1.399       .  A
C603        S608   1.805       .  S
C604        C605   1.410       .  A
C604        H609   1.082       .  S
C605        C606   1.422       .  A
C606        S610   1.805       .  S
C607        C612   1.413       .  A
C607        C616   1.404       .  A
S608        H624   1.407       .  S
S610        H621   1.407       .  S
C612        C613   1.403       .  A
C612        S617   1.809       .  S
C613        C614   1.410       .  A
C613        H618   1.081       .  S
C614        C615   1.419       .  A
C615        C616   1.398       .  A
C615        S619   1.804       .  S
C616        H620   1.083       .  S
S617        H622   1.407       .  S
S619        H623   1.407       .  S
C625        C626   1.404       .  A
C625        C630   1.403       .  A
C625        H635   1.084       .  S
C626        C627   1.412       .  A
C626        C631   1.484       .  S
C627        C628   1.400       .  A
C627        S632   1.804       .  S
C628        C629   1.405       .  A
C628        H633   1.084       .  S
C629        C630   1.417       .  A
C630        S634   1.804       .  S
C631        C636   1.410       .  A
C631        C640   1.402       .  A
S632        H648   1.405       .  S
S634        H645   1.406       .  S
C636        C637   1.405       .  A
C636        S641   1.806       .  S
C637        C638   1.405       .  A
C637        H642   1.083       .  S
C638        C639   1.416       .  A
C639        C640   1.401       .  A
C639        S643   1.804       .  S
C640        H644   1.084       .  S
S641        H646   1.407       .  S
S643        H647   1.406       .  S
C649        C650   1.404       .  A
C649        C654   1.403   1_655  A
C649        H659   1.084       .  S
C650        C655   1.485       .  S
C651       C1098   1.413       .  A
C651        C652   1.400   1_655  A
C651        S656   1.805       .  S
C652       C1101   1.404       .  A
C652        H657   1.084       .  S
C653        C654   1.417       .  A
C654        S658   1.804       .  S
C655        C660   1.411       .  A
S656        H672   1.406       .  S
S658        H669   1.406       .  S
C660        C661   1.405       .  A
C660        S665   1.806       .  S
C661        C662   1.406       .  A
C661        H666   1.083       .  S
C663       C1110   1.416       .  A
C663        C664   1.400       .  A
C663        S667   1.804       .  S
C664       C1103   1.402       .  A
C664        H668   1.084       .  S
S665        H670   1.407       .  S
S667        H671   1.407       .  S
C673        C678   1.405       .  A
C673        C877   1.487       .  S
C674       C1121   1.404       .  A
C674        C675   1.406       .  A
C674        H679   1.084       .  S
C675        C676   1.403       .  A
C675        C702   1.474       .  S
C676       C1125   1.404       .  A
C676        H680   1.084       .  S
C677        C678   1.406       .  A
C677        C780   1.478       .  S
C678        H681   1.084       .  S
C682        C687   1.404       .  A
C682        C886   1.488       .  S
C683       C1130   1.406       .  A
C683        C684   1.407       .  A
C683        H688   1.084       .  S
C684       C1133   1.402       .  A
C684        C733   1.476       .  S
C685        C686   1.401       .  A
C685        H689   1.084       .  S
C686        C687   1.405       .  A
C686        C767   1.471       .  S
C687        H690   1.084       .  S
O691       Cu699   2.008       .  S
O691        C701   1.279       .  A
O692       Cu699   2.020       .  S
O692        C702   1.280       .  A
O693       Cu699   1.997       .  S
O693        C703   1.276       .  A
O694       Cu699   2.010       .  S
O694        C704   1.277       .  A
O695       Cu700   2.007       .  S
O695        C704   1.278       .  A
O696       Cu700   2.020       .  S
O696        C703   1.280       .  A
O697       Cu700   2.000       .  S
O697        C702   1.276       .  A
O698       Cu700   2.014       .  S
O698        C701   1.278       .  A
Cu699      Cu700   2.375       .  S
C701        C739   1.478       .  S
C703        C707   1.476       .  S
C704        C785   1.473       .  S
C705        C706   1.405       .  A
C705        C710   1.404       .  A
C705        C862   1.487       .  S
C706        C707   1.407       .  A
C706        H711   1.084       .  S
C707        C708   1.403       .  A
C708        C709   1.402       .  A
C708        H712   1.084       .  S
C709        C710   1.406       .  A
C709        C781   1.473       .  S
C710        H713   1.084       .  S
C714        C715   1.405       .  A
C714        C719   1.404       .  A
C714        C853   1.487       .  S
C715        C716   1.407       .  A
C715        H720   1.084       .  S
C716        C717   1.403       .  A
C716        C736   1.474       .  S
C717        C718   1.403       .  A
C717        H721   1.084       .  S
C718        C719   1.406       .  A
C718        C766   1.477       .  S
C719        H722   1.084       .  S
O723       Cu731   2.019       .  S
O723        C733   1.280       .  A
O724        C734   1.279       .  A
O725        C735   1.278       .  A
O726       Cu731   2.001       .  S
O726        C736   1.276       .  A
O727       Cu732   2.020       .  S
O727        C736   1.280       .  A
O728        C735   1.279       .  A
O729        C734   1.277       .  A
O730       Cu732   1.997       .  S
O730        C733   1.276       .  A
Cu731      Cu732   2.374       .  S
C734        C748   1.474       .  S
C735        C796   1.478       .  S
C737        C738   1.408       .  A
C737        C742   1.410       .  A
C737        C829   1.501       .  S
C738        C739   1.404       .  A
C738        H743   1.082       .  S
C739        C740   1.403       .  A
C740        C741   1.402       .  A
C740        H744   1.084       .  S
C741        C742   1.404       .  A
C741        C779   1.474       .  S
C742        H745   1.083       .  S
C746        C747   1.408       .  A
C746        C751   1.408       .  A
C746        C838   1.498       .  S
C747        C748   1.402       .  A
C747        H752   1.083       .  S
C748        C749   1.403       .  A
C749        C750   1.404       .  A
C749        H753   1.084       .  S
C750        C751   1.404       .  A
C750        C768   1.477       .  S
C751        H754   1.082       .  S
O755       Cu763   2.010       .  S
O755        C765   1.279       .  A
O756       Cu763   2.022       .  S
O756        C766   1.280       .  A
O757       Cu763   1.995       .  S
O757        C767   1.275       .  A
O758       Cu763   2.012       .  S
O758        C768   1.278       .  A
O759       Cu764   2.010       .  S
O759        C768   1.279       .  A
O760       Cu764   2.017       .  S
O760        C767   1.280       .  A
O761       Cu764   1.998       .  S
O761        C766   1.276       .  A
O762       Cu764   2.011       .  S
O762        C765   1.277       .  A
Cu763      Cu764   2.375       .  S
C765        C794   1.473       .  S
O769        C779   1.278       .  A
O770       Cu777   2.021   1_556  S
O770        C780   1.280       .  A
O771       Cu777   2.000   1_556  S
O771        C781   1.276       .  A
O772        C782   1.279       .  A
O773        C782   1.278       .  A
O774       Cu778   2.018   1_556  S
O774        C781   1.280       .  A
O775       Cu778   2.001   1_556  S
O775        C780   1.276       .  A
O776        C779   1.278       .  A
Cu777      Cu778   2.374       .  S
C782        C787   1.480       .  S
C783        C788   1.409       .  A
C783        C814   1.496       .  S
C784       C1231   1.406       .  A
C784        C785   1.401       .  A
C784        H789   1.084       .  S
C785        C786   1.403       .  A
C786       C1235   1.405       .  A
C786        H790   1.084       .  S
C787        C788   1.406       .  A
C788        H791   1.082       .  S
C792        C793   1.411       .  A
C792        C805   1.507       .  S
C793        C794   1.403       .  A
C793        H798   1.082       .  S
C794        C795   1.401       .  A
C795        H799   1.084       .  S
C796       C1243   1.402       .  A
C796        C797   1.405       .  A
C797       C1240   1.410       .  A
C797        H800   1.081       .  S
C801       C1250   1.403       .  A
C801        C806   1.400       .  A
C801        H811   1.083       .  S
C802        C803   1.413       .  A
C802        C807   1.493       .  S
C803        C804   1.399       .  A
C803        S808   1.806       .  S
C804        C805   1.412       .  A
C804        H809   1.081       .  S
C806       C1253   1.424       .  A
C806        S810   1.805       .  S
C807        C816   1.405       .  A
S808        H824   1.407       .  S
S810        H821   1.407       .  S
C812       C1255   1.413       .  A
C812        C813   1.403   1_655  A
C812        S817   1.809       .  S
C813       C1262   1.409       .  A
C813        H818   1.082       .  S
C814        C815   1.417       .  A
C815        C816   1.399   1_455  A
C815        S819   1.804       .  S
C816        H820   1.083       .  S
S817        H822   1.407   1_655  S
S819        H823   1.407       .  S
C825        C826   1.403       .  A
C825        C830   1.399       .  A
C825        H835   1.083       .  S
C826        C827   1.414       .  A
C826        C831   1.492       .  S
C827        C828   1.399       .  A
C827        S832   1.805       .  S
C828        C829   1.410       .  A
C828        H833   1.082       .  S
C829        C830   1.422       .  A
C830        S834   1.805       .  S
C831        C836   1.413       .  A
C831        C840   1.404       .  A
S832        H848   1.407       .  S
S834        H845   1.407       .  S
C836        C837   1.403       .  A
C836        S841   1.809       .  S
C837        C838   1.410       .  A
C837        H842   1.081       .  S
C838        C839   1.419       .  A
C839        C840   1.398       .  A
C839        S843   1.804       .  S
C840        H844   1.083       .  S
S841        H846   1.407       .  S
S843        H847   1.407       .  S
C849        C850   1.404       .  A
C849        C854   1.403       .  A
C849        H859   1.084       .  S
C850        C851   1.412       .  A
C850        C855   1.484       .  S
C851        C852   1.400       .  A
C851        S856   1.804       .  S
C852        C853   1.405       .  A
C852        H857   1.084       .  S
C853        C854   1.417       .  A
C854        S858   1.804       .  S
C855        C860   1.410       .  A
C855        C864   1.402       .  A
S856        H872   1.405       .  S
S858        H869   1.406       .  S
C860        C861   1.405       .  A
C860        S865   1.806       .  S
C861        C862   1.405       .  A
C861        H866   1.083       .  S
C862        C863   1.416       .  A
C863        C864   1.401       .  A
C863        S867   1.804       .  S
C864        H868   1.084       .  S
S865        H870   1.407       .  S
S867        H871   1.406       .  S
C873        C874   1.404       .  A
C873        C878   1.403   1_655  A
C873        H883   1.084       .  S
C874        C879   1.485       .  S
C875       C1322   1.413       .  A
C875        C876   1.400   1_655  A
C875        S880   1.805       .  S
C876       C1325   1.404       .  A
C876        H881   1.084       .  S
C877        C878   1.417       .  A
C878        S882   1.804       .  S
C879        C884   1.411       .  A
S880        H896   1.406       .  S
S882        H893   1.406       .  S
C884        C885   1.405       .  A
C884        S889   1.806       .  S
C885        C886   1.406       .  A
C885        H890   1.083       .  S
C887       C1334   1.416       .  A
C887        C888   1.400       .  A
C887        S891   1.804       .  S
C888       C1327   1.402       .  A
C888        H892   1.084       .  S
S889        H894   1.407       .  S
S891        H895   1.407       .  S
C897        C902   1.405       .  A
C897       C1101   1.487       .  S
C898        C899   1.406       .  A
C898        H903   1.084       .  S
C899        C900   1.403       .  A
C899        C926   1.474       .  S
C900        H904   1.084       .  S
C901        C902   1.406       .  A
C901       C1004   1.478       .  S
C902        H905   1.084       .  S
C906        C911   1.404       .  A
C906       C1110   1.488       .  S
C907        C908   1.407       .  A
C907        H912   1.084       .  S
C908        C957   1.476       .  S
C909        C910   1.401       .  A
C909        H913   1.084       .  S
C910        C911   1.405       .  A
C910        C991   1.471       .  S
C911        H914   1.084       .  S
O915       Cu923   2.008       .  S
O915        C925   1.279       .  A
O916       Cu923   2.020       .  S
O916        C926   1.280       .  A
O917       Cu923   1.997       .  S
O917        C927   1.276       .  A
O918       Cu923   2.010       .  S
O918        C928   1.277       .  A
O919       Cu924   2.007       .  S
O919        C928   1.278       .  A
O920       Cu924   2.020       .  S
O920        C927   1.280       .  A
O921       Cu924   2.000       .  S
O921        C926   1.276       .  A
O922       Cu924   2.014       .  S
O922        C925   1.278       .  A
Cu923      Cu924   2.375       .  S
C925        C963   1.478       .  S
C927        C931   1.476       .  S
C928       C1009   1.473       .  S
C929        C930   1.405       .  A
C929        C934   1.404       .  A
C929       C1086   1.487       .  S
C930        C931   1.407       .  A
C930        H935   1.084       .  S
C931        C932   1.403       .  A
C932        C933   1.402       .  A
C932        H936   1.084       .  S
C933        C934   1.406       .  A
C933       C1005   1.473       .  S
C934        H937   1.084       .  S
C938        C939   1.405       .  A
C938        C943   1.404       .  A
C938       C1077   1.487       .  S
C939        C940   1.407       .  A
C939        H944   1.084       .  S
C940        C941   1.403       .  A
C940        C960   1.474       .  S
C941        C942   1.403       .  A
C941        H945   1.084       .  S
C942        C943   1.406       .  A
C942        C990   1.477       .  S
C943        H946   1.084       .  S
O947       Cu955   2.019       .  S
O947        C957   1.280       .  A
O948      Cu1179   2.008   1_554  S
O948        C958   1.279       .  A
O949      Cu1179   2.014   1_554  S
O949        C959   1.278       .  A
O950       Cu955   2.001       .  S
O950        C960   1.276       .  A
O951       Cu956   2.020       .  S
O951        C960   1.280       .  A
O952      Cu1180   2.009   1_554  S
O952        C959   1.279       .  A
O953      Cu1180   2.012   1_554  S
O953        C958   1.277       .  A
O954       Cu956   1.997       .  S
O954        C957   1.276       .  A
Cu955      O1172   2.008       .  S
Cu955      O1173   2.014       .  S
Cu955      Cu956   2.374       .  S
Cu956      O1176   2.009       .  S
Cu956      O1177   2.012       .  S
C958        C972   1.474       .  S
C959       C1020   1.478       .  S
C961        C962   1.408       .  A
C961        C966   1.410       .  A
C961       C1053   1.501       .  S
C962        C963   1.404       .  A
C962        H967   1.082       .  S
C963        C964   1.403       .  A
C964        C965   1.402       .  A
C964        H968   1.084       .  S
C965        C966   1.404       .  A
C965       C1003   1.474       .  S
C966        H969   1.083       .  S
C970        C971   1.408       .  A
C970        C975   1.408       .  A
C970       C1062   1.498       .  S
C971        C972   1.402       .  A
C971        H976   1.083       .  S
C972        C973   1.403       .  A
C973        C974   1.404       .  A
C973        H977   1.084       .  S
C974        C975   1.404       .  A
C974        C992   1.477       .  S
C975        H978   1.082       .  S
O979       Cu987   2.010       .  S
O979        C989   1.279       .  A
O980       Cu987   2.022       .  S
O980        C990   1.280       .  A
O981       Cu987   1.995       .  S
O981        C991   1.275       .  A
O982       Cu987   2.012       .  S
O982        C992   1.278       .  A
O983       Cu988   2.010       .  S
O983        C992   1.279       .  A
O984       Cu988   2.017       .  S
O984        C991   1.280       .  A
O985       Cu988   1.998       .  S
O985        C990   1.276       .  A
O986       Cu988   2.011       .  S
O986        C989   1.277       .  A
Cu987      Cu988   2.375       .  S
C989       C1018   1.473       .  S
O993      Cu1225   2.010       .  S
O993       C1003   1.278       .  A
O994      Cu1001   2.021       .  S
O994       C1004   1.280       .  A
O995      Cu1001   2.000       .  S
O995       C1005   1.276       .  A
O996      Cu1225   2.017       .  S
O996       C1006   1.279       .  A
O997      Cu1226   2.010       .  S
O997       C1006   1.278       .  A
O998      Cu1002   2.018       .  S
O998       C1005   1.280       .  A
O999      Cu1002   2.001       .  S
O999       C1004   1.276       .  A
O1000     Cu1226   2.013       .  S
O1000      C1003   1.278       .  A
Cu1001     O1217   2.010       .  S
Cu1001     O1220   2.017       .  S
Cu1001    Cu1002   2.374       .  S
Cu1002     O1221   2.010       .  S
Cu1002     O1224   2.013       .  S
C1006      C1011   1.480       .  S
C1007      C1012   1.409       .  A
C1007      C1038   1.496       .  S
C1008      C1009   1.401       .  A
C1008      H1013   1.084       .  S
C1009      C1010   1.403       .  A
C1010      H1014   1.084       .  S
C1011      C1012   1.406       .  A
C1012      H1015   1.082       .  S
C1016      C1017   1.411       .  A
C1016      C1029   1.507       .  S
C1017      C1018   1.403       .  A
C1017      H1022   1.082       .  S
C1018      C1019   1.401       .  A
C1019      H1023   1.084       .  S
C1020      C1021   1.405       .  A
C1021      H1024   1.081       .  S
C1025      C1030   1.400       .  A
C1025      H1035   1.083       .  S
C1026      C1027   1.413       .  A
C1026      C1031   1.493       .  S
C1027      C1028   1.399       .  A
C1027      S1032   1.806       .  S
C1028      C1029   1.412       .  A
C1028      H1033   1.081       .  S
C1030      S1034   1.805       .  S
C1031      C1040   1.405       .  A
S1032      H1048   1.407       .  S
S1034      H1045   1.407       .  S
C1036      C1037   1.403   1_655  A
C1036      S1041   1.809       .  S
C1037      H1042   1.082       .  S
C1038      C1039   1.417       .  A
C1039      C1040   1.399   1_455  A
C1039      S1043   1.804       .  S
C1040      H1044   1.083       .  S
S1041      H1046   1.407   1_655  S
S1043      H1047   1.407       .  S
C1049      C1050   1.403       .  A
C1049      C1054   1.399       .  A
C1049      H1059   1.083       .  S
C1050      C1051   1.414       .  A
C1050      C1055   1.492       .  S
C1051      C1052   1.399       .  A
C1051      S1056   1.805       .  S
C1052      C1053   1.410       .  A
C1052      H1057   1.082       .  S
C1053      C1054   1.422       .  A
C1054      S1058   1.805       .  S
C1055      C1060   1.413       .  A
C1055      C1064   1.404       .  A
S1056      H1072   1.407       .  S
S1058      H1069   1.407       .  S
C1060      C1061   1.403       .  A
C1060      S1065   1.809       .  S
C1061      C1062   1.410       .  A
C1061      H1066   1.081       .  S
C1062      C1063   1.419       .  A
C1063      C1064   1.398       .  A
C1063      S1067   1.804       .  S
C1064      H1068   1.083       .  S
S1065      H1070   1.407       .  S
S1067      H1071   1.407       .  S
C1073      C1074   1.404       .  A
C1073      C1078   1.403       .  A
C1073      H1083   1.084       .  S
C1074      C1075   1.412       .  A
C1074      C1079   1.484       .  S
C1075      C1076   1.400       .  A
C1075      S1080   1.804       .  S
C1076      C1077   1.405       .  A
C1076      H1081   1.084       .  S
C1077      C1078   1.417       .  A
C1078      S1082   1.804       .  S
C1079      C1084   1.410       .  A
C1079      C1088   1.402       .  A
S1080      H1096   1.405       .  S
S1082      H1093   1.406       .  S
C1084      C1085   1.405       .  A
C1084      S1089   1.806       .  S
C1085      C1086   1.405       .  A
C1085      H1090   1.083       .  S
C1086      C1087   1.416       .  A
C1087      C1088   1.401       .  A
C1087      S1091   1.804       .  S
C1088      H1092   1.084       .  S
S1089      H1094   1.407       .  S
S1091      H1095   1.406       .  S
C1097      C1098   1.404       .  A
C1097      C1102   1.403   1_655  A
C1097      H1107   1.084       .  S
C1098      C1103   1.485       .  S
C1099      C1100   1.400   1_655  A
C1099      S1104   1.805       .  S
C1100      H1105   1.084       .  S
C1101      C1102   1.417       .  A
C1102      S1106   1.804       .  S
C1103      C1108   1.411       .  A
S1104      H1120   1.406       .  S
S1106      H1117   1.406       .  S
C1108      C1109   1.405       .  A
C1108      S1113   1.806       .  S
C1109      C1110   1.406       .  A
C1109      H1114   1.083       .  S
C1111      C1112   1.400       .  A
C1111      S1115   1.804       .  S
C1112      H1116   1.084       .  S
S1113      H1118   1.407       .  S
S1115      H1119   1.407       .  S
C1121      C1126   1.405       .  A
C1121      C1325   1.487       .  S
C1122      C1123   1.406       .  A
C1122      H1127   1.084       .  S
C1123      C1124   1.403       .  A
C1123      C1150   1.474       .  S
C1124      H1128   1.084       .  S
C1125      C1126   1.406       .  A
C1125      C1228   1.478       .  S
C1126      H1129   1.084       .  S
C1130      C1135   1.404       .  A
C1130      C1334   1.488       .  S
C1131      C1132   1.407       .  A
C1131      H1136   1.084       .  S
C1132      C1181   1.476       .  S
C1133      C1134   1.401       .  A
C1133      H1137   1.084       .  S
C1134      C1135   1.405       .  A
C1134      C1215   1.471       .  S
C1135      H1138   1.084       .  S
O1139     Cu1147   2.008       .  S
O1139      C1149   1.279       .  A
O1140     Cu1147   2.020       .  S
O1140      C1150   1.280       .  A
O1141     Cu1147   1.997       .  S
O1141      C1151   1.276       .  A
O1142     Cu1147   2.010       .  S
O1142      C1152   1.277       .  A
O1143     Cu1148   2.007       .  S
O1143      C1152   1.278       .  A
O1144     Cu1148   2.020       .  S
O1144      C1151   1.280       .  A
O1145     Cu1148   2.000       .  S
O1145      C1150   1.276       .  A
O1146     Cu1148   2.014       .  S
O1146      C1149   1.278       .  A
Cu1147    Cu1148   2.375       .  S
C1149      C1187   1.478       .  S
C1151      C1155   1.476       .  S
C1152      C1233   1.473       .  S
C1153      C1154   1.405       .  A
C1153      C1158   1.404       .  A
C1153      C1310   1.487       .  S
C1154      C1155   1.407       .  A
C1154      H1159   1.084       .  S
C1155      C1156   1.403       .  A
C1156      C1157   1.402       .  A
C1156      H1160   1.084       .  S
C1157      C1158   1.406       .  A
C1157      C1229   1.473       .  S
C1158      H1161   1.084       .  S
C1162      C1163   1.405       .  A
C1162      C1167   1.404       .  A
C1162      C1301   1.487       .  S
C1163      C1164   1.407       .  A
C1163      H1168   1.084       .  S
C1164      C1165   1.403       .  A
C1164      C1184   1.474       .  S
C1165      C1166   1.403       .  A
C1165      H1169   1.084       .  S
C1166      C1167   1.406       .  A
C1166      C1214   1.477       .  S
C1167      H1170   1.084       .  S
O1171     Cu1179   2.019       .  S
O1171      C1181   1.280       .  A
O1172      C1182   1.279       .  A
O1173      C1183   1.278       .  A
O1174     Cu1179   2.001       .  S
O1174      C1184   1.276       .  A
O1175     Cu1180   2.020       .  S
O1175      C1184   1.280       .  A
O1176      C1183   1.279       .  A
O1177      C1182   1.277       .  A
O1178     Cu1180   1.997       .  S
O1178      C1181   1.276       .  A
Cu1179    Cu1180   2.374       .  S
C1182      C1196   1.474       .  S
C1183      C1244   1.478       .  S
C1185      C1186   1.408       .  A
C1185      C1190   1.410       .  A
C1185      C1277   1.501       .  S
C1186      C1187   1.404       .  A
C1186      H1191   1.082       .  S
C1187      C1188   1.403       .  A
C1188      C1189   1.402       .  A
C1188      H1192   1.084       .  S
C1189      C1190   1.404       .  A
C1189      C1227   1.474       .  S
C1190      H1193   1.083       .  S
C1194      C1195   1.408       .  A
C1194      C1199   1.408       .  A
C1194      C1286   1.498       .  S
C1195      C1196   1.402       .  A
C1195      H1200   1.083       .  S
C1196      C1197   1.403       .  A
C1197      C1198   1.404       .  A
C1197      H1201   1.084       .  S
C1198      C1199   1.404       .  A
C1198      C1216   1.477       .  S
C1199      H1202   1.082       .  S
O1203     Cu1211   2.010       .  S
O1203      C1213   1.279       .  A
O1204     Cu1211   2.022       .  S
O1204      C1214   1.280       .  A
O1205     Cu1211   1.995       .  S
O1205      C1215   1.275       .  A
O1206     Cu1211   2.012       .  S
O1206      C1216   1.278       .  A
O1207     Cu1212   2.010       .  S
O1207      C1216   1.279       .  A
O1208     Cu1212   2.017       .  S
O1208      C1215   1.280       .  A
O1209     Cu1212   1.998       .  S
O1209      C1214   1.276       .  A
O1210     Cu1212   2.011       .  S
O1210      C1213   1.277       .  A
Cu1211    Cu1212   2.375       .  S
C1213      C1242   1.473       .  S
O1217      C1227   1.278       .  A
O1218     Cu1225   2.021   1_556  S
O1218      C1228   1.280       .  A
O1219     Cu1225   2.000   1_556  S
O1219      C1229   1.276       .  A
O1220      C1230   1.279       .  A
O1221      C1230   1.278       .  A
O1222     Cu1226   2.018   1_556  S
O1222      C1229   1.280       .  A
O1223     Cu1226   2.001   1_556  S
O1223      C1228   1.276       .  A
O1224      C1227   1.278       .  A
Cu1225    Cu1226   2.374       .  S
C1230      C1235   1.480       .  S
C1231      C1236   1.409       .  A
C1231      C1262   1.496       .  S
C1232      C1233   1.401       .  A
C1232      H1237   1.084       .  S
C1233      C1234   1.403       .  A
C1234      H1238   1.084       .  S
C1235      C1236   1.406       .  A
C1236      H1239   1.082       .  S
C1240      C1241   1.411       .  A
C1240      C1253   1.507       .  S
C1241      C1242   1.403       .  A
C1241      H1246   1.082       .  S
C1242      C1243   1.401       .  A
C1243      H1247   1.084       .  S
C1244      C1245   1.405       .  A
C1245      H1248   1.081       .  S
C1249      C1254   1.400       .  A
C1249      H1259   1.083       .  S
C1250      C1251   1.413       .  A
C1250      C1255   1.493       .  S
C1251      C1252   1.399       .  A
C1251      S1256   1.806       .  S
C1252      C1253   1.412       .  A
C1252      H1257   1.081       .  S
C1254      S1258   1.805       .  S
C1255      C1264   1.405       .  A
S1256      H1272   1.407       .  S
S1258      H1269   1.407       .  S
C1260      C1261   1.403   1_655  A
C1260      S1265   1.809       .  S
C1261      H1266   1.082       .  S
C1262      C1263   1.417       .  A
C1263      C1264   1.399   1_455  A
C1263      S1267   1.804       .  S
C1264      H1268   1.083       .  S
S1265      H1270   1.407   1_655  S
S1267      H1271   1.407       .  S
C1273      C1274   1.403       .  A
C1273      C1278   1.399       .  A
C1273      H1283   1.083       .  S
C1274      C1275   1.414       .  A
C1274      C1279   1.492       .  S
C1275      C1276   1.399       .  A
C1275      S1280   1.805       .  S
C1276      C1277   1.410       .  A
C1276      H1281   1.082       .  S
C1277      C1278   1.422       .  A
C1278      S1282   1.805       .  S
C1279      C1284   1.413       .  A
C1279      C1288   1.404       .  A
S1280      H1296   1.407       .  S
S1282      H1293   1.407       .  S
C1284      C1285   1.403       .  A
C1284      S1289   1.809       .  S
C1285      C1286   1.410       .  A
C1285      H1290   1.081       .  S
C1286      C1287   1.419       .  A
C1287      C1288   1.398       .  A
C1287      S1291   1.804       .  S
C1288      H1292   1.083       .  S
S1289      H1294   1.407       .  S
S1291      H1295   1.407       .  S
C1297      C1298   1.404       .  A
C1297      C1302   1.403       .  A
C1297      H1307   1.084       .  S
C1298      C1299   1.412       .  A
C1298      C1303   1.484       .  S
C1299      C1300   1.400       .  A
C1299      S1304   1.804       .  S
C1300      C1301   1.405       .  A
C1300      H1305   1.084       .  S
C1301      C1302   1.417       .  A
C1302      S1306   1.804       .  S
C1303      C1308   1.410       .  A
C1303      C1312   1.402       .  A
S1304      H1320   1.405       .  S
S1306      H1317   1.406       .  S
C1308      C1309   1.405       .  A
C1308      S1313   1.806       .  S
C1309      C1310   1.405       .  A
C1309      H1314   1.083       .  S
C1310      C1311   1.416       .  A
C1311      C1312   1.401       .  A
C1311      S1315   1.804       .  S
C1312      H1316   1.084       .  S
S1313      H1318   1.407       .  S
S1315      H1319   1.406       .  S
C1321      C1322   1.404       .  A
C1321      C1326   1.403   1_655  A
C1321      H1331   1.084       .  S
C1322      C1327   1.485       .  S
C1323      C1324   1.400   1_655  A
C1323      S1328   1.805       .  S
C1324      H1329   1.084       .  S
C1325      C1326   1.417       .  A
C1326      S1330   1.804       .  S
C1327      C1332   1.411       .  A
S1328      H1344   1.406       .  S
S1330      H1341   1.406       .  S
C1332      C1333   1.405       .  A
C1332      S1337   1.806       .  S
C1333      C1334   1.406       .  A
C1333      H1338   1.083       .  S
C1335      C1336   1.400       .  A
C1335      S1339   1.804       .  S
C1336      H1340   1.084       .  S
S1337      H1342   1.407       .  S
S1339      H1343   1.407       .  S
