geometry optimzed in LAMMPS
_audit_creation_date              2020-11-30 
_audit_creation_method            'lammps2cif' 
_symmetry_space_group_name_H-M    'P1' 
_symmetry_Int_Tables_number       1 
_symmetry_cell_setting            triclinic 
loop_ 
_symmetry_equiv_pos_as_xyz 
  x,y,z 
_cell_length_a                    51.1162445850477 
_cell_length_b                    25.726990684089685 
_cell_length_c                    52.22056792067332 
_cell_angle_alpha                 90.10388397136316 
_cell_angle_beta                  90.09667118330864 
_cell_angle_gamma                 90.0393669633542 
loop_ 
_atom_site_label 
_atom_site_type_symbol 
_atom_site_fract_x 
_atom_site_fract_y 
_atom_site_fract_z 
_atom_site_charge 
Zn1        Zn  0.64646142  0.30683374  0.20241452     1.49720
Zn2        Zn  0.65764793  0.22126646  0.24537159     1.49360
Zn3        Zn  0.60724527  0.29203109  0.24827856     1.49110
Zn4        Zn  0.61034267  0.20618660  0.20537350     1.49480
O5          O  0.63058223  0.25626939  0.22525123    -1.83350
O6          O  0.68510491  0.29454116  0.20047024    -0.73980
O7          O  0.65526700  0.24103631  0.28312718    -0.73800
O8          O  0.61266693  0.36876600  0.24683373    -0.73310
O9          O  0.69368695  0.23309293  0.22932896    -0.73990
O10         O  0.64021567  0.38112969  0.21454519    -0.73590
O11         O  0.61477096  0.27260226  0.28411187    -0.74180
O12         O  0.57129366  0.21837357  0.20966871    -0.73570
O13         O  0.65057569  0.14434117  0.24531909    -0.74320
O14         O  0.56963838  0.27635553  0.24122867    -0.73710
O15         O  0.61808338  0.13319860  0.21758924    -0.74180
O16         O  0.61876337  0.21327841  0.16778799    -0.74090
O17         O  0.63471305  0.29395582  0.16589378    -0.73880
C18         C  0.70084628  0.26303947  0.21113770     0.77910
C19         C  0.63525634  0.25692471  0.29549959     0.78400
C20         C  0.62623067  0.39870553  0.23283017     0.77360
C21         C  0.55833773  0.24653377  0.22523534     0.77740
C22         C  0.63436978  0.11489424  0.23376594     0.78870
C23         C  0.62686992  0.25226763  0.15503768     0.77920
Zn24       Zn  0.65503354  0.27909412  0.49473671     1.49720
Zn25       Zn  0.60434649  0.20930818  0.99817411     1.49360
Zn26       Zn  0.60796150  0.29296686  0.45463638     1.49110
Zn27       Zn  0.64338914  0.19295638  0.45287268     1.49480
O28         O  0.62773277  0.24410337  0.47517899    -1.83350
O29         O  0.65193071  0.26021658  0.03264633    -0.73980
O30         O  0.56701587  0.22161017  0.48894409    -0.73800
O31         O  0.61529426  0.36658274  0.46663992    -0.73310
O32         O  0.61020994  0.23481834  0.03365116    -0.73990
O33         O  0.64779417  0.35593847  0.49437864    -0.73590
O34         O  0.56870547  0.28018724  0.45783071    -0.74180
O35         O  0.62952872  0.19989560  0.41709243    -0.73570
O36         O  0.61092459  0.13256167  0.49848831    -0.74320
O37         O  0.61867113  0.28346891  0.41776902    -0.73710
O38         O  0.63930657  0.11988340  0.46687414    -0.74180
O39         O  0.68141884  0.20879220  0.44836523    -0.74090
O40         O  0.69127039  0.26727242  0.47823727    -0.73880
C41         C  0.63094573  0.24976905  0.04494883     0.77910
C42         C  0.55564853  0.25108741  0.47289899     0.78400
C43         C  0.63146851  0.38513467  0.48286651     0.77360
C44         C  0.62525039  0.24255687  0.40548157     0.77740
C45         C  0.62536468  0.10262136  0.48522402     0.78870
C46         C  0.69781912  0.23897898  0.45910025     0.77920
Zn47       Zn  0.89467835  0.20976917  0.12424476     1.49720
Zn48       Zn  0.84503667  0.28352424  0.12653225     1.49360
Zn49       Zn  0.85397406  0.19626134  0.16812046     1.49110
Zn50       Zn  0.89120331  0.29508869  0.16774460     1.49480
O51         O  0.87133011  0.24672658  0.14664104    -1.83350
O52         O  0.88766506  0.23017845  0.08828858    -0.73980
O53         O  0.80905328  0.27775272  0.14369863    -0.73800
O54         O  0.85701457  0.12296707  0.15439871    -0.73310
O55         O  0.84693778  0.26124945  0.08882938    -0.73990
O56         O  0.88866223  0.13280344  0.12566907    -0.73590
O57         O  0.81644544  0.21466268  0.17187526    -0.74180
O58         O  0.88163969  0.28341236  0.20512222    -0.73570
O59         O  0.85384964  0.35957330  0.12621995    -0.74320
O60         O  0.86679354  0.20177054  0.20422756    -0.73710
O61         O  0.88453685  0.36960299  0.15586396    -0.74180
O62         O  0.93022227  0.28199759  0.16401251    -0.74090
O63         O  0.93221580  0.22423442  0.13239624    -0.73880
C64         C  0.86724253  0.24579283  0.07669239     0.77910
C65         C  0.80159116  0.24885540  0.16217001     0.78400
C66         C  0.87253787  0.10425287  0.13771602     0.77360
C67         C  0.87372608  0.24235295  0.21647532     0.77740
C68         C  0.86962538  0.38857214  0.13861432     0.78870
C69         C  0.94338688  0.25325821  0.14886125     0.77920
Zn70       Zn  0.84389991  0.21504819  0.37692613     1.49720
Zn71       Zn  0.85505799  0.29995615  0.41955037     1.49360
Zn72       Zn  0.89144548  0.19973350  0.41704513     1.49110
Zn73       Zn  0.89440289  0.28578832  0.37466464     1.49480
O74         O  0.87110007  0.24929674  0.39715311    -1.83350
O75         O  0.80722091  0.22787537  0.39266380    -0.73980
O76         O  0.86823431  0.29162742  0.45531814    -0.73800
O77         O  0.88414973  0.12604980  0.40414910    -0.73310
O78         O  0.81714019  0.28450149  0.42334113    -0.73990
O79         O  0.85051787  0.13787829  0.37770612    -0.73590
O80         O  0.88227152  0.20933599  0.45466914    -0.74180
O81         O  0.93198473  0.27560384  0.38393445    -0.73570
O82         O  0.85881985  0.37360251  0.40626729    -0.74320
O83         O  0.93058281  0.21331915  0.41325977    -0.73710
O84         O  0.88647019  0.36167431  0.37396884    -0.74180
O85         O  0.88935892  0.26139253  0.33919686    -0.74090
O86         O  0.84819165  0.23369654  0.33886625    -0.73880
C87         C  0.80063277  0.25550423  0.41203950     0.77910
C88         C  0.87520177  0.25020026  0.46675973     0.78400
C89         C  0.86715748  0.10821045  0.38844386     0.77360
C90         C  0.94344525  0.24507251  0.39942568     0.77740
C91         C  0.87185518  0.39092463  0.38733872     0.78870
C92         C  0.86926764  0.24600403  0.32706448     0.77920
Zn93       Zn  0.10879260  0.29866525  0.16691037     1.49720
Zn94       Zn  0.10500864  0.21291531  0.12479435     1.49360
Zn95       Zn  0.15593454  0.28129062  0.12668978     1.49110
Zn96       Zn  0.14442718  0.19859381  0.17015225     1.49480
O97         O  0.12865416  0.24846418  0.14726291    -1.83350
O98         O  0.06953051  0.28765981  0.16288409    -0.73980
O99         O  0.11034964  0.23658166  0.08925630    -0.73800
O100        O  0.14997340  0.35805120  0.12718656    -0.73310
O101        O  0.06760805  0.22602812  0.13313473    -0.73990
O102        O  0.11690601  0.37076207  0.15401739    -0.73590
O103        O  0.15152414  0.26365089  0.08860808    -0.74180
O104        O  0.18239985  0.21526488  0.17428298    -0.73570
O105        O  0.11195381  0.13698737  0.12483502    -0.74320
O106        O  0.19238898  0.26883304  0.14232027    -0.73710
O107        O  0.14035437  0.12461135  0.15628864    -0.74180
O108        O  0.13129985  0.20863169  0.20611007    -0.74090
O109        O  0.11811663  0.29116052  0.20428806    -0.73880
C110        C  0.05640023  0.25777348  0.14819834     0.77910
C111        C  0.13021112  0.25244557  0.07695248     0.78400
C112        C  0.13364331  0.38805459  0.13805834     0.77360
C113        C  0.19876704  0.24351062  0.16243076     0.77740
C114        C  0.12672466  0.10703887  0.13762138     0.78870
C115        C  0.12484598  0.25111312  0.21704494     0.77920
Zn116      Zn  0.10644332  0.21378258  0.37431772     1.49720
Zn117      Zn  0.10751442  0.30297348  0.41534167     1.49360
Zn118      Zn  0.14269910  0.20279396  0.42189083     1.49110
Zn119      Zn  0.15708726  0.28402711  0.37779154     1.49480
O120        O  0.12871720  0.25172287  0.39736927    -1.83350
O121        O  0.06845122  0.22434552  0.38182224    -0.73980
O122        O  0.11451196  0.29864875  0.45346667    -0.73800
O123        O  0.13845518  0.12788854  0.41034014    -0.73310
O124        O  0.06869671  0.28872830  0.41019109    -0.73990
O125        O  0.11429751  0.13797698  0.37530852    -0.73590
O126        O  0.12811656  0.21649723  0.45693442    -0.74180
O127        O  0.19300638  0.26876249  0.39502389    -0.73570
O128        O  0.11575955  0.37497215  0.40182438    -0.74320
O129        O  0.18078786  0.21565936  0.42639858    -0.73710
O130        O  0.15090274  0.36192664  0.37732638    -0.74180
O131        O  0.15431979  0.26393352  0.33970349    -0.74090
O132        O  0.11316234  0.23570070  0.33874654    -0.73880
C133        C  0.05637243  0.25618558  0.39621222     0.77910
C134        C  0.12072774  0.25925048  0.46694272     0.78400
C135        C  0.12723112  0.10934270  0.39053297     0.77360
C136        C  0.19824891  0.24213385  0.41510840     0.77740
C137        C  0.13358580  0.39180854  0.38691848     0.78870
C138        C  0.13375267  0.25058635  0.32729377     0.77920
Zn139      Zn  0.39590020  0.20917783  0.24737187     1.49720
Zn140      Zn  0.39343385  0.29483832  0.20488818     1.49360
Zn141      Zn  0.35792153  0.19454376  0.20133215     1.49110
Zn142      Zn  0.34492124  0.28002579  0.24339689     1.49480
O143        O  0.37289716  0.24527127  0.22430153    -1.83350
O144        O  0.43367582  0.22154488  0.23940509    -0.73980
O145        O  0.38450202  0.28712940  0.16753032    -0.73800
O146        O  0.36144665  0.12079265  0.21501850    -0.73310
O147        O  0.43240019  0.28179165  0.20914476    -0.73990
O148        O  0.38880518  0.13249366  0.24764763    -0.73590
O149        O  0.37124613  0.20445513  0.16546443    -0.74180
O150        O  0.30855326  0.26566185  0.22700615    -0.73570
O151        O  0.38562299  0.36796402  0.21695314    -0.74320
O152        O  0.32011478  0.20944154  0.19704902    -0.73710
O153        O  0.35109759  0.35734675  0.24223187    -0.74180
O154        O  0.34855515  0.26360676  0.28165147    -0.74090
O155        O  0.38930479  0.23371811  0.28257464    -0.73880
C156        C  0.44527935  0.25161230  0.22378692     0.77910
C157        C  0.37741854  0.24724144  0.15476423     0.78400
C158        C  0.37427404  0.10316040  0.23410035     0.77360
C159        C  0.30279826  0.23754352  0.20750943     0.77740
C160        C  0.36808221  0.38654135  0.23170974     0.78870
C161        C  0.36922039  0.25088654  0.29406406     0.77920
Zn162      Zn  0.39501762  0.29191898  0.99616258     1.49720
Zn163      Zn  0.35336128  0.30475919  0.45306346     1.49360
Zn164      Zn  0.38961168  0.20649815  0.45290531     1.49110
Zn165      Zn  0.34545063  0.22041809  0.49607024     1.49480
O166        O  0.37101033  0.25526250  0.47456201    -1.83350
O167        O  0.38753581  0.36822465  0.49598826    -0.73980
O168        O  0.36658973  0.30133349  0.41718658    -0.73800
O169        O  0.42890359  0.21809642  0.45581924    -0.73310
O170        O  0.35586796  0.37781700  0.46722992    -0.73990
O171        O  0.43206119  0.27888986  0.48596043    -0.73590
O172        O  0.37899442  0.21836750  0.41582526    -0.74180
O173        O  0.35434820  0.14464968  0.49686369    -0.73570
O174        O  0.31619925  0.28298195  0.44901410    -0.74320
O175        O  0.38241450  0.13274111  0.46492701    -0.73710
O176        O  0.30876291  0.22613613  0.48026806    -0.74180
O177        O  0.34907398  0.24339377  0.03342562    -0.74090
O178        O  0.39054288  0.26942861  0.03222898    -0.73880
C179        C  0.37096202  0.39659919  0.48436626     0.77910
C180        C  0.37197322  0.26027764  0.40466620     0.78400
C181        C  0.44259703  0.24824295  0.46985795     0.77360
C182        C  0.36882901  0.11503850  0.48344353     0.77740
C183        C  0.30127837  0.25111659  0.46043297     0.78870
C184        C  0.37045760  0.25545306  0.04474544     0.77920
Zn185      Zn  0.60722612  0.79356275  0.04196665     1.49720
Zn186      Zn  0.65524514  0.78155170  0.50281042     1.49360
Zn187      Zn  0.64352420  0.69511236  0.04499611     1.49110
Zn188      Zn  0.60615294  0.70871883  0.49851384     1.49480
O189        O  0.62813976  0.74547541  0.02206951    -1.83350
O190        O  0.61454233  0.86775290  0.03092057    -0.73980
O191        O  0.69082674  0.77043821  0.02021658    -0.73800
O192        O  0.62839409  0.70061905  0.08016015    -0.73310
O193        O  0.64783350  0.85841034  0.00392196    -0.73990
O194        O  0.61479781  0.78287163  0.07955871    -0.73590
O195        O  0.68090425  0.71387329  0.05095907    -0.74180
O196        O  0.61417313  0.63279874  0.99810651    -0.73570
O197        O  0.65320973  0.76317118  0.46445491    -0.74320
O198        O  0.64095813  0.62160361  0.03095898    -0.73710
O199        O  0.61257067  0.73316247  0.46340532    -0.74180
O200        O  0.56840282  0.71898939  0.50615050    -0.74090
O201        O  0.56872806  0.77940627  0.03663307    -0.73880
C202        C  0.63124292  0.88697243  0.01544963     0.77910
C203        C  0.69703602  0.74433796  0.04016470     0.78400
C204        C  0.62108322  0.74173656  0.09169461     0.77360
C205        C  0.62845742  0.60341178  0.01179802     0.77740
C206        C  0.63277555  0.74976119  0.45188964     0.78870
C207        C  0.55646250  0.74855463  0.02174778     0.77920
Zn208      Zn  0.64410112  0.80633067  0.29455825     1.49720
Zn209      Zn  0.60498734  0.79309139  0.24928287     1.49360
Zn210      Zn  0.65531411  0.72107354  0.25188377     1.49110
Zn211      Zn  0.60774488  0.70608104  0.29119398     1.49480
O212        O  0.62813986  0.75603893  0.27174924    -1.83350
O213        O  0.63932693  0.88070209  0.28236035    -0.73980
O214        O  0.61125173  0.77132103  0.21373489    -0.73800
O215        O  0.69164386  0.73311446  0.26806633    -0.73310
O216        O  0.61176348  0.86937334  0.24999786    -0.73990
O217        O  0.68219267  0.79182818  0.29784599    -0.73590
O218        O  0.65147656  0.73888414  0.21387515    -0.74180
O219        O  0.61472872  0.63288816  0.27813629    -0.73570
O220        O  0.56735386  0.77995473  0.25707201    -0.74320
O221        O  0.64870813  0.64416658  0.25224983    -0.73710
O222        O  0.56872357  0.71920948  0.28720339    -0.74180
O223        O  0.61700707  0.71383279  0.32867296    -0.74090
O224        O  0.63171404  0.79546198  0.33044276    -0.73880
C225        C  0.62576644  0.89890509  0.26392084     0.77910
C226        C  0.63100172  0.75375798  0.20182004     0.78400
C227        C  0.69846706  0.76165091  0.28704081     0.77360
C228        C  0.63176755  0.61487467  0.26265673     0.77740
C229        C  0.55586793  0.74910783  0.27236364     0.78870
C230        C  0.62444008  0.75364782  0.34136026     0.77920
Zn231      Zn  0.89472089  0.71222394  0.12246096     1.49720
Zn232      Zn  0.89364346  0.79784251  0.07989336     1.49360
Zn233      Zn  0.85690986  0.69888713  0.07532175     1.49110
Zn234      Zn  0.84456724  0.78402725  0.11799462     1.49480
O235        O  0.87228796  0.74861168  0.09883730    -1.83350
O236        O  0.93278364  0.72460008  0.11565164    -0.73980
O237        O  0.88670281  0.79026139  0.04201533    -0.73800
O238        O  0.86095100  0.62438587  0.08867510    -0.73310
O239        O  0.93218383  0.78495109  0.08551865    -0.73990
O240        O  0.88772913  0.63567886  0.12166500    -0.73590
O241        O  0.87148179  0.70905768  0.03975124    -0.74180
O242        O  0.80850596  0.77077923  0.10176812    -0.73570
O243        O  0.88615962  0.87088625  0.09200290    -0.74320
O244        O  0.81866729  0.71533687  0.07063177    -0.73710
O245        O  0.85098801  0.86113689  0.11663478    -0.74180
O246        O  0.84716231  0.76773666  0.15632348    -0.74090
O247        O  0.88749814  0.73606062  0.15786314    -0.73880
C248        C  0.94475798  0.75504040  0.10048550     0.77910
C249        C  0.87972963  0.75051983  0.02907002     0.78400
C250        C  0.87381143  0.60607909  0.10761492     0.77360
C251        C  0.80211903  0.74426350  0.08198099     0.77740
C252        C  0.86845897  0.88968488  0.10646695     0.78870
C253        C  0.86739085  0.75413852  0.16906710     0.77920
Zn254      Zn  0.89242554  0.79928999  0.32976837     1.49720
Zn255      Zn  0.84455669  0.78424242  0.36916011     1.49360
Zn256      Zn  0.85537929  0.69838684  0.32631769     1.49110
Zn257      Zn  0.89423825  0.71220559  0.37140216     1.49480
O258        O  0.87141483  0.74933759  0.34887726    -1.83350
O259        O  0.88541928  0.87282406  0.34290977    -0.73980
O260        O  0.80803648  0.77184005  0.35323554    -0.73800
O261        O  0.86648360  0.71165815  0.29019022    -0.73310
O262        O  0.85149868  0.86122891  0.36892907    -0.73990
O263        O  0.88409948  0.79120888  0.29199579    -0.73590
O264        O  0.81711772  0.71146827  0.32410756    -0.74180
O265        O  0.88688680  0.63680830  0.37144738    -0.73570
O266        O  0.84873663  0.76582976  0.40718565    -0.74320
O267        O  0.86128580  0.62329218  0.33783937    -0.73710
O268        O  0.88936933  0.73534270  0.40678404    -0.74180
O269        O  0.93164694  0.72176018  0.36297702    -0.74090
O270        O  0.93133123  0.78532574  0.33431770    -0.73880
C271        C  0.86862158  0.89060037  0.35874631     0.77910
C272        C  0.80097767  0.74217000  0.33475203     0.78400
C273        C  0.87510803  0.75255544  0.27935272     0.77360
C274        C  0.87421157  0.60616943  0.35697877     0.77740
C275        C  0.86956604  0.75178093  0.41892735     0.78870
C276        C  0.94360051  0.75325149  0.34848816     0.77920
Zn277      Zn  0.15766693  0.78197946  0.12098653     1.49720
Zn278      Zn  0.10800469  0.70942964  0.12465106     1.49360
Zn279      Zn  0.10915063  0.79537670  0.08200066     1.49110
Zn280      Zn  0.14640455  0.69720136  0.07833844     1.49480
O281        O  0.13034222  0.74658737  0.10142090    -1.83350
O282        O  0.15653364  0.76126605  0.15877718    -0.73980
O283        O  0.07019687  0.72346643  0.11905917    -0.73800
O284        O  0.11683766  0.86912934  0.09424286    -0.73310
O285        O  0.11667159  0.72647763  0.16045424    -0.73990
O286        O  0.14967212  0.85798780  0.12149437    -0.73590
O287        O  0.07065314  0.78255408  0.08832479    -0.74180
O288        O  0.13091462  0.70348194  0.04316796    -0.73570
O289        O  0.11364638  0.63366435  0.12197080    -0.74320
O290        O  0.11507332  0.78427970  0.04375712    -0.73710
O291        O  0.14340311  0.62316042  0.09155730    -0.74180
O292        O  0.18408865  0.71648970  0.07309343    -0.74090
O293        O  0.19334848  0.77382966  0.10367529    -0.73880
C294        C  0.13718093  0.74322044  0.17144398     0.77910
C295        C  0.05817834  0.75335008  0.10376338     0.78400
C296        C  0.13298492  0.88731255  0.11071067     0.77360
C297        C  0.12185982  0.74321660  0.03164987     0.77740
C298        C  0.12863391  0.60459931  0.10896554     0.78870
C299        C  0.19998637  0.74778701  0.08386293     0.77920
Zn300      Zn  0.10833849  0.70248814  0.33035277     1.49720
Zn301      Zn  0.14454671  0.80280357  0.32910430     1.49360
Zn302      Zn  0.10508967  0.78771911  0.37344633     1.49110
Zn303      Zn  0.15510500  0.71686415  0.37115076     1.49480
O304        O  0.12835761  0.75161592  0.35094364    -1.83350
O305        O  0.11772578  0.71345440  0.29306233    -0.73980
O306        O  0.14054240  0.87663885  0.34247019    -0.73800
O307        O  0.06803700  0.77737168  0.36368201    -0.73310
O308        O  0.13171263  0.79519601  0.29327940    -0.73990
O309        O  0.06918248  0.71576038  0.33393060    -0.73590
O310        O  0.11204739  0.86372702  0.37384108    -0.74180
O311        O  0.15082323  0.73600708  0.40919947    -0.73570
O312        O  0.18217696  0.78620521  0.32483761    -0.74320
O313        O  0.10965994  0.76353282  0.40896055    -0.73710
O314        O  0.19172363  0.72798564  0.35478428    -0.74180
O315        O  0.14760268  0.63998200  0.37055016    -0.74090
O316        O  0.11588738  0.62827094  0.34210484    -0.73880
C317        C  0.12515257  0.75425437  0.28115722     0.77910
C318        C  0.12635356  0.89385163  0.36065645     0.78400
C319        C  0.05644162  0.74750125  0.34794640     0.77360
C320        C  0.12975716  0.74810140  0.42106888     0.77740
C321        C  0.19834423  0.75561065  0.33545765     0.78870
C322        C  0.13169005  0.61010452  0.35879076     0.77920
Zn323      Zn  0.35876750  0.80610596  0.04540330     1.49720
Zn324      Zn  0.39407866  0.79215069  0.49746890     1.49360
Zn325      Zn  0.39331217  0.70561333  0.03985335     1.49110
Zn326      Zn  0.34451859  0.72136914  0.50218759     1.49480
O327        O  0.37240672  0.75575866  0.02127903    -1.83350
O328        O  0.36420267  0.88064710  0.03360872    -0.73980
O329        O  0.43185058  0.78065014  0.50444633    -0.73800
O330        O  0.38533299  0.70946692  0.07763301    -0.73310
O331        O  0.38649184  0.86802946  0.99781115    -0.73990
O332        O  0.37141211  0.79119933  0.08132918    -0.73590
O333        O  0.43173057  0.72015003  0.03473846    -0.74180
O334        O  0.35157408  0.64424740  0.00133296    -0.73570
O335        O  0.38684854  0.76878753  0.46224500    -0.74320
O336        O  0.38617001  0.63356465  0.02653535    -0.73710
O337        O  0.34572596  0.74101439  0.46399731    -0.74180
O338        O  0.30971810  0.73373588  0.02087295    -0.74090
O339        O  0.32054082  0.79503374  0.04904332    -0.73880
C340        C  0.37466674  0.89817339  0.01323259     0.77910
C341        C  0.44390252  0.75042080  0.01958290     0.78400
C342        C  0.37785304  0.74775763  0.09127321     0.77360
C343        C  0.36919900  0.61533585  0.01104763     0.77740
C344        C  0.36607846  0.75359630  0.45115364     0.78870
C345        C  0.30393499  0.76356679  0.03970478     0.77920
Zn346      Zn  0.34382774  0.78020522  0.25056319     1.49720
Zn347      Zn  0.39035170  0.79369355  0.29193673     1.49360
Zn348      Zn  0.35341494  0.69426133  0.29284447     1.49110
Zn349      Zn  0.39430735  0.70895880  0.24879790     1.49480
O350        O  0.37043188  0.74490113  0.27111957    -1.83350
O351        O  0.35206285  0.85702019  0.25038551    -0.73980
O352        O  0.38079792  0.78341252  0.32930259    -0.73800
O353        O  0.31550162  0.71072580  0.29606127    -0.73310
O354        O  0.38375853  0.86729047  0.27927633    -0.73990
O355        O  0.30715816  0.77100927  0.26682589    -0.73590
O356        O  0.36523758  0.70220563  0.32914812    -0.74180
O357        O  0.38784884  0.63230446  0.24922732    -0.73570
O358        O  0.42948356  0.78103846  0.28869440    -0.74320
O359        O  0.35803647  0.62059703  0.27959518    -0.73710
O360        O  0.43174503  0.72231812  0.25765817    -0.74180
O361        O  0.38879096  0.73158174  0.21302912    -0.74090
O362        O  0.34735697  0.75876678  0.21270865    -0.73880
C363        C  0.36853991  0.88568379  0.26212020     0.77910
C364        C  0.37270859  0.74290700  0.34098835     0.78400
C365        C  0.29982210  0.74250199  0.28554645     0.77360
C366        C  0.37286387  0.60270851  0.26204651     0.77740
C367        C  0.44280472  0.75186336  0.27394136     0.78870
C368        C  0.36848756  0.74637528  0.20105353     0.77920
C369        C  0.39109307  0.74013261  0.41110888    -0.11490
C370        C  0.36674319  0.74991999  0.42280091     0.05520
C371        C  0.34435492  0.75593682  0.40720826    -0.06780
C372        C  0.34688074  0.75188342  0.38050722    -0.07520
C373        C  0.37130217  0.74320194  0.36903438    -0.02070
C374        C  0.39371792  0.73636885  0.38443400     0.04750
N375        N  0.41900720  0.72487142  0.37355025     0.67250
H376        H  0.40826090  0.73432921  0.42295857     0.16150
H377        H  0.32978713  0.75745092  0.36850477     0.15860
N378        N  0.31932476  0.76869835  0.41788945     0.74960
O379        O  0.43961720  0.73475845  0.38601384    -0.38490
O380        O  0.42090567  0.70031715  0.35268094    -0.38440
O381        O  0.31715636  0.80638966  0.43325484    -0.39140
O382        O  0.29891174  0.74732142  0.40923122    -0.39210
C383        C  0.39306551  0.77364208  0.13407098    -0.11490
C384        C  0.37639761  0.74238463  0.11934262     0.05520
C385        C  0.35688442  0.71202452  0.13169850    -0.06780
C386        C  0.35362059  0.71717171  0.15833590    -0.07520
C387        C  0.37020227  0.74880412  0.17294476    -0.02070
C388        C  0.39066178  0.77637446  0.16076748     0.04750
N389        N  0.40896513  0.80763723  0.17506062     0.67250
H390        H  0.40791165  0.79674725  0.12459935     0.16150
H391        H  0.33881927  0.69435122  0.16801793     0.15860
N392        N  0.34007054  0.67649093  0.11793168     0.74960
O393        O  0.43229768  0.81215000  0.16746121    -0.38490
O394        O  0.40151511  0.83398664  0.19411525    -0.38440
O395        O  0.34784867  0.65370907  0.09794221    -0.39140
O396        O  0.31812095  0.66389380  0.12711457    -0.39210
C397        C  0.22585918  0.74996990  0.29633711    -0.11490
C398        C  0.22455782  0.75075673  0.32331648     0.05520
C399        C  0.24806066  0.75040988  0.33737904    -0.06780
C400        C  0.27208514  0.74908373  0.32434254    -0.07520
C401        C  0.27345331  0.74802639  0.29735253    -0.02070
C402        C  0.24988257  0.74885653  0.28318836     0.04750
N403        N  0.24971535  0.74653117  0.25571594     0.67250
H404        H  0.20788813  0.75051911  0.28528366     0.16150
H405        H  0.28998370  0.74885728  0.33550925     0.15860
N406        N  0.24801580  0.75446067  0.36471867     0.74960
O407        O  0.23367599  0.71704870  0.24437519    -0.38490
O408        O  0.26180720  0.78036652  0.24288190    -0.38440
O409        O  0.23922957  0.71765293  0.37813736    -0.39140
O410        O  0.26011112  0.79131881  0.37546418    -0.39210
C411        C  0.14660273  0.73747350  0.49180895    -0.11490
C412        C  0.12211591  0.74290729  0.00340587     0.05520
C413        C  0.09952565  0.74632965  0.48781814    -0.06780
C414        C  0.10277536  0.74684897  0.46099751    -0.07520
C415        C  0.12776244  0.74445255  0.44944135    -0.02070
C416        C  0.14986293  0.73958778  0.46533311     0.04750
N417        N  0.17583603  0.73888430  0.45518460     0.67250
H418        H  0.16348248  0.73133556  0.00359099     0.16150
H419        H  0.08551729  0.74955713  0.44902071     0.15860
N420        N  0.07340032  0.74630417  0.49833990     0.74960
O421        O  0.19114545  0.77618517  0.45997459    -0.38490
O422        O  0.18490385  0.69739583  0.44583064    -0.38440
O423        O  0.06897559  0.76182511  0.02084903    -0.39140
O424        O  0.05432381  0.73122217  0.48483121    -0.39210
C425        C  0.14315852  0.78942742  0.21241668    -0.11490
C426        C  0.13739982  0.74301790  0.19962904     0.05520
C427        C  0.12714058  0.70051619  0.21352976    -0.06780
C428        C  0.12254613  0.70602061  0.23985839    -0.07520
C429        C  0.12772524  0.75294521  0.25276385    -0.02070
C430        C  0.13777025  0.79553511  0.23854374     0.04750
N431        N  0.14143040  0.84595498  0.24977606     0.67250
H432        H  0.15015312  0.82250587  0.20163522     0.16150
H433        H  0.11528303  0.67279701  0.25039371     0.15860
N434        N  0.12164180  0.65142328  0.20133228     0.74960
O435        O  0.16232801  0.87073717  0.24567737    -0.38490
O436        O  0.12204118  0.86976012  0.25907258    -0.38440
O437        O  0.13628342  0.63448708  0.18374703    -0.39140
O438        O  0.10359504  0.62257696  0.20970904    -0.39210
C439        C  0.24769444  0.76767166  0.08812699    -0.11490
C440        C  0.22646208  0.75445442  0.07250228     0.05520
C441        C  0.23080313  0.74756488  0.04595757    -0.06780
C442        C  0.25624561  0.74858701  0.03611291    -0.07520
C443        C  0.27761136  0.76085072  0.05168078    -0.02070
C444        C  0.27313283  0.77176291  0.07810813     0.04750
N445        N  0.29396080  0.78566825  0.09530831     0.67250
H446        H  0.24458199  0.77388716  0.10842359     0.16150
H447        H  0.25916087  0.74304486  0.01573368     0.15860
N448        N  0.20944537  0.74593696  0.02832350     0.74960
O449        O  0.28987844  0.81772469  0.11319697    -0.38490
O450        O  0.31501560  0.76028506  0.09525697    -0.38440
O451        O  0.19264286  0.78185881  0.02908735    -0.39140
O452        O  0.21083399  0.71729464  0.00871010    -0.39210
C453        C  0.98543495  0.74110778  0.32548460    -0.11490
C454        C  0.97234151  0.75231945  0.34841242     0.05520
C455        C  0.98692516  0.76292392  0.37084182    -0.06780
C456        C  0.01424036  0.76174506  0.36971446    -0.07040
C457        C  0.02752137  0.74954754  0.34695016    -0.02070
C458        C  0.01290766  0.73972608  0.32439850     0.04750
N459        N  0.02541945  0.73060557  0.30017609     0.67250
H460        H  0.97415006  0.73391523  0.30824446     0.16150
H461        H  0.02522988  0.76940847  0.38709007     0.15860
N462        N  0.97460543  0.77696350  0.39463076     0.74960
O463        O  0.01532731  0.69945709  0.28426631    -0.38490
O464        O  0.04414747  0.75914913  0.29308249    -0.38440
O465        O  0.95748577  0.74781827  0.40442777    -0.39140
O466        O  0.98410309  0.81326807  0.40804216    -0.39210
C467        C  0.98669949  0.73978051  0.12334029    -0.11490
C468        C  0.97379685  0.75601669  0.10095067     0.05520
C469        C  0.98900050  0.77157669  0.07968424    -0.06780
C470        C  0.01632293  0.77007023  0.08119305    -0.07520
C471        C  0.02918839  0.75361579  0.10348639    -0.02070
C472        C  0.01403601  0.73825544  0.12483880     0.04750
N473        N  0.02587914  0.72226082  0.14841609     0.67250
H474        H  0.97547761  0.72810013  0.13995976     0.16150
H475        H  0.02757563  0.78169272  0.06458393     0.15860
N476        N  0.97729770  0.78740370  0.05606288     0.74960
O477        O  0.02179526  0.74834995  0.16850700    -0.38490
O478        O  0.03504231  0.67688616  0.15033974    -0.38440
O479        O  0.96696350  0.83183114  0.05453518    -0.39140
O480        O  0.98337518  0.76379417  0.03571486    -0.39210
C481        C  0.89695623  0.75547858  0.45829665    -0.11490
C482        C  0.87173060  0.75397155  0.44721465     0.05520
C483        C  0.84976385  0.75327919  0.46343546    -0.06780
C484        C  0.85359001  0.75278977  0.48990858    -0.07520
C485        C  0.87847386  0.75394304  0.00095219    -0.02070
C486        C  0.90067669  0.75585840  0.48497586     0.04750
N487        N  0.92686169  0.75636186  0.49517526     0.67250
H488        H  0.91403091  0.75681516  0.44605030     0.16150
H489        H  0.83696532  0.74974312  0.00220612     0.15860
N490        N  0.82358731  0.75067882  0.45360955     0.74960
O491        O  0.94556706  0.73796425  0.48225703    -0.38490
O492        O  0.93187331  0.77926401  0.01597496    -0.38440
O493        O  0.81669993  0.71277473  0.43977225    -0.39140
O494        O  0.80635321  0.78123900  0.46214354    -0.39210
C495        C  0.84892230  0.75560394  0.23982186    -0.11490
C496        C  0.87375283  0.75534248  0.25131512     0.05520
C497        C  0.89636198  0.75809826  0.23593011    -0.06780
C498        C  0.89335786  0.75986066  0.20922411    -0.07520
C499        C  0.86848818  0.75884551  0.19745752    -0.02070
C500        C  0.84599821  0.75848168  0.21315855     0.04750
N501        N  0.82014982  0.76038541  0.20256821     0.67250
H502        H  0.83159239  0.75446436  0.25176343     0.16150
H503        H  0.91077929  0.76063363  0.19744733     0.15860
N504        N  0.92233648  0.75711671  0.24679370     0.74960
O505        O  0.80341180  0.72701886  0.20927053    -0.38490
O506        O  0.81255741  0.80104732  0.19129796    -0.38440
O507        O  0.92699533  0.73242664  0.26717060    -0.39140
O508        O  0.94128442  0.77677235  0.23470684    -0.39210
C509        C  0.51384066  0.74622576  0.29614727    -0.11490
C510        C  0.52696757  0.74803390  0.27258483     0.05520
C511        C  0.51227025  0.75132582  0.24963812    -0.06780
C512        C  0.48491913  0.75399374  0.25099730    -0.07520
C513        C  0.47174050  0.75313816  0.27455403    -0.02070
C514        C  0.48643595  0.74944609  0.29745322     0.04750
N515        N  0.47404912  0.74716661  0.32204710     0.67250
H516        H  0.52503271  0.74382541  0.31375608     0.16150
H517        H  0.47370859  0.75575905  0.23337759     0.15860
N518        N  0.52457373  0.74974392  0.22485491     0.74960
O519        O  0.48128811  0.71340381  0.33807187    -0.38490
O520        O  0.46018215  0.78470440  0.32962195    -0.38440
O521        O  0.54307861  0.71844313  0.22055876    -0.39140
O522        O  0.51470659  0.77434951  0.20630253    -0.39210
C523        C  0.72788670  0.76667563  0.32500153    -0.11490
C524        C  0.72516348  0.75797635  0.29843009     0.05520
C525        C  0.74740996  0.74297358  0.28425511    -0.06780
C526        C  0.77143707  0.73640108  0.29698290    -0.07520
C527        C  0.77419321  0.74530060  0.32353140    -0.02070
C528        C  0.75191910  0.76001061  0.33775802     0.04750
N529        N  0.75291180  0.76586897  0.36513741     0.67250
H530        H  0.71082112  0.77673350  0.33624789     0.16150
H531        H  0.78847842  0.72630979  0.28570245     0.15860
N532        N  0.74638312  0.73658592  0.25692381     0.74960
O533        O  0.73850875  0.79892031  0.37611408    -0.38490
O534        O  0.76518865  0.73328846  0.37863223    -0.38440
O535        O  0.73505968  0.77010949  0.24319585    -0.39140
O536        O  0.75986957  0.70168988  0.24622560    -0.39210
C537        C  0.48565170  0.75137871  0.04339610    -0.11490
C538        C  0.47265997  0.75069135  0.01973383     0.05520
C539        C  0.48734303  0.74773501  0.49686882    -0.06780
C540        C  0.51463482  0.74575464  0.49827466    -0.07520
C541        C  0.52768097  0.74763584  0.02190757    -0.02070
C542        C  0.51303576  0.74968806  0.04482826     0.04750
N543        N  0.52541889  0.74740986  0.06955051     0.67250
H544        H  0.47432145  0.75242413  0.06091605     0.16150
H545        H  0.52579035  0.74388912  0.48065457     0.15860
N546        N  0.47502846  0.74441081  0.47219676     0.74960
O547        O  0.51511630  0.76998174  0.08850484    -0.38490
O548        O  0.54436028  0.71688169  0.07333101    -0.38440
O549        O  0.46240986  0.78275372  0.46359384    -0.39140
O550        O  0.48149208  0.70845388  0.45699360    -0.39210
C551        C  0.65052331  0.76075586  0.38093215    -0.11490
C552        C  0.62615595  0.75100503  0.36942176     0.05520
C553        C  0.60405730  0.74237311  0.38492529    -0.06780
C554        C  0.60698436  0.74362266  0.41158017    -0.07520
C555        C  0.63146233  0.75255115  0.42339912    -0.02070
C556        C  0.65344825  0.76173976  0.40764389     0.04750
N557        N  0.67880088  0.77209413  0.41817989     0.67250
H558        H  0.66746143  0.76812371  0.36899415     0.16150
H559        H  0.58973735  0.73696302  0.42314446     0.15860
N560        N  0.57839497  0.73459476  0.37420848     0.74960
O561        O  0.69804849  0.74471837  0.41133144    -0.38490
O562        O  0.68291045  0.81439821  0.42979110    -0.38440
O563        O  0.57471113  0.70107665  0.35690667    -0.39140
O564        O  0.55877023  0.75542182  0.38468605    -0.39210
C565        C  0.60446093  0.75899757  0.16190768    -0.11490
C566        C  0.62905668  0.75012304  0.17345382     0.05520
C567        C  0.65034553  0.73605470  0.15771119    -0.06780
C568        C  0.64649930  0.73084096  0.13127193    -0.07520
C569        C  0.62243336  0.74284850  0.11980402    -0.02070
C570        C  0.60097471  0.75635100  0.13533165     0.04750
N571        N  0.57532045  0.76467280  0.12482825     0.67250
H572        H  0.58764046  0.76866759  0.17357110     0.16150
H573        H  0.66276407  0.71923727  0.11935358     0.15860
N574        N  0.67612908  0.72905455  0.16791872     0.74960
O575        O  0.55559712  0.74532005  0.13579440    -0.38490
O576        O  0.57186263  0.79737459  0.10717765    -0.38440
O577        O  0.68888003  0.68847821  0.16257442    -0.39140
O578        O  0.68780299  0.76699999  0.17821093    -0.39210
C579        C  0.75366549  0.75296539  0.08778735    -0.11490
C580        C  0.77510965  0.74747063  0.07137794     0.05520
C581        C  0.77045555  0.74530158  0.04472466    -0.06780
C582        C  0.74497171  0.74549933  0.03504895    -0.07520
C583        C  0.72352478  0.74909130  0.05137412    -0.02070
C584        C  0.72787427  0.75475066  0.07815309     0.04750
N585        N  0.70673232  0.76467313  0.09565688     0.67250
H586        H  0.75708633  0.75641844  0.10819709     0.16150
H587        H  0.74195515  0.74291958  0.01452542     0.15860
N588        N  0.79142671  0.74774580  0.02695982     0.74960
O589        O  0.70956663  0.75490355  0.11918037    -0.38490
O590        O  0.68717546  0.79102907  0.08863449    -0.38440
O591        O  0.79445177  0.71090511  0.01124385    -0.39140
O592        O  0.80121960  0.79170842  0.02218129    -0.39210
C593        C  0.39286843  0.47717271  0.49897224    -0.11490
C594        C  0.36970988  0.45248604  0.49108905     0.05520
C595        C  0.34632592  0.48174932  0.48965218    -0.06780
C596        C  0.34688776  0.53491962  0.49577480    -0.07520
C597        C  0.37006388  0.55954337  0.00381379    -0.02070
C598        C  0.39347893  0.53024777  0.00491472     0.04750
N599        N  0.41826692  0.55395785  0.01064089     0.67250
H600        H  0.41099032  0.45535251  0.49959734     0.16150
H601        H  0.32879575  0.55680505  0.49510815     0.15860
N602        N  0.32169252  0.45794609  0.48334774     0.74960
O603        O  0.43453443  0.53058819  0.02472614    -0.38490
O604        O  0.42568358  0.59333901  0.99820775    -0.38440
O605        O  0.31473033  0.41656711  0.49438135    -0.39140
O606        O  0.30522218  0.48224595  0.46988625    -0.39210
C607        C  0.36818361  0.04588377  0.01655141    -0.11490
C608        C  0.37041888  0.05936903  0.49054043     0.05520
C609        C  0.37356744  0.01948650  0.47223666    -0.06780
C610        C  0.37451047  0.96761322  0.48026510    -0.07520
C611        C  0.37255555  0.95401187  0.00630850    -0.02070
C612        C  0.36908697  0.99393477  0.02460214     0.04750
N613        N  0.36713680  0.98292494  0.05140330     0.67250
H614        H  0.36578652  0.07606554  0.03086728     0.16150
H615        H  0.37675839  0.93761033  0.46583930     0.15860
N616        N  0.37479191  0.03048299  0.44539074     0.74960
O617        O  0.38334878  0.00307323  0.06674688    -0.38490
O618        O  0.34637411  0.96322097  0.06013583    -0.38440
O619        O  0.39540361  0.04963576  0.43605350    -0.39140
O620        O  0.35798917  0.01076467  0.43052681    -0.39210
C621        C  0.34791658  0.52131777  0.25474000    -0.11490
C622        C  0.37219848  0.54671345  0.25560388     0.05520
C623        C  0.39493666  0.51971866  0.24775058    -0.06780
C624        C  0.39266733  0.46843295  0.23883923    -0.07520
C625        C  0.36840040  0.44283121  0.23799726    -0.02070
C626        C  0.34561514  0.47008220  0.24564509     0.04750
N627        N  0.31997285  0.44755666  0.24313591     0.67250
H628        H  0.33038666  0.54246977  0.25997315     0.16150
H629        H  0.41027237  0.44751100  0.23363720     0.15860
N630        N  0.42053414  0.54275509  0.24974073     0.74960
O631        O  0.30226368  0.45895676  0.25900722    -0.38490
O632        O  0.31386849  0.42274259  0.22311178    -0.38440
O633        O  0.42666623  0.56937654  0.26918699    -0.39140
O634        O  0.43810402  0.53103598  0.23377717    -0.39210
C635        C  0.34725989  0.96901339  0.24990116    -0.11490
C636        C  0.37038406  0.94133932  0.25496164     0.05520
C637        C  0.39476048  0.96712811  0.25272563    -0.06780
C638        C  0.39524542  0.02011753  0.24632999    -0.07520
C639        C  0.37216185  0.04769324  0.24121833    -0.02070
C640        C  0.34774800  0.02208131  0.24343531     0.04750
N641        N  0.32338242  0.04961348  0.24059226     0.67250
H642        H  0.32858381  0.94948912  0.25189138     0.16150
H643        H  0.41393002  0.03965032  0.24437490     0.15860
N644        N  0.41915747  0.93978147  0.25539914     0.74960
O645        O  0.30322351  0.02595477  0.23280934    -0.38490
O646        O  0.32097620  0.09530751  0.24913733    -0.38440
O647        O  0.42219318  0.89587482  0.24497855    -0.39140
O648        O  0.43888416  0.96273043  0.26463088    -0.39210
C649        C  0.39376121  0.25247159  0.36304717    -0.11490
C650        C  0.37062699  0.26151809  0.37653587     0.05520
C651        C  0.34689560  0.26931214  0.36287302    -0.06780
C652        C  0.34707448  0.26544565  0.33601322    -0.07520
C653        C  0.37020197  0.25554498  0.32244270    -0.02070
C654        C  0.39393119  0.25029983  0.33633795     0.04750
N655        N  0.41856876  0.24401031  0.32376504     0.67250
H656        H  0.41199624  0.24735034  0.37338795     0.16150
H657        H  0.32891141  0.27043971  0.32559847     0.15860
N658        N  0.32239004  0.27954051  0.37554277     0.74960
O659        O  0.43395502  0.28223936  0.32211201    -0.38490
O660        O  0.42687746  0.19893881  0.31878536    -0.38440
O661        O  0.32140087  0.30953628  0.39463356    -0.39140
O662        O  0.30117293  0.26611345  0.36501435    -0.39210
C663        C  0.35090080  0.26951614  0.08777664    -0.11490
C664        C  0.37233410  0.25366442  0.07299153     0.05520
C665        C  0.39546796  0.23714384  0.08542921    -0.06780
C666        C  0.39638643  0.23516034  0.11213566    -0.07520
C667        C  0.37510175  0.25132228  0.12688556    -0.02070
C668        C  0.35201413  0.26995159  0.11474590     0.04750
N669        N  0.32979857  0.28969021  0.12899035     0.67250
H670        H  0.33342010  0.28293548  0.07808714     0.16150
H671        H  0.41402238  0.22136185  0.12147772     0.15860
N672        N  0.41802333  0.22100707  0.07128779     0.74960
O673        O  0.30965923  0.30538107  0.11729071    -0.38490
O674        O  0.33024414  0.29358647  0.15307947    -0.38440
O675        O  0.43356231  0.25488243  0.06269645    -0.39140
O676        O  0.42541007  0.17428123  0.07248468    -0.39210
C677        C  0.12009327  0.46270527  0.35802399    -0.11490
C678        C  0.13383524  0.44730826  0.37998971     0.05520
C679        C  0.14652535  0.48516530  0.39518842    -0.06780
C680        C  0.14530490  0.53759542  0.38765076    -0.07520
C681        C  0.13156750  0.55356498  0.36555214    -0.02070
C682        C  0.11841544  0.51519414  0.35085977     0.04750
N683        N  0.10298995  0.52838509  0.32888725     0.67250
H684        H  0.10998822  0.43366216  0.34663207     0.16150
H685        H  0.15530123  0.56629147  0.39929422     0.15860
N686        N  0.16048758  0.47156899  0.41826756     0.74960
O687        O  0.10746384  0.50624053  0.30775662    -0.38490
O688        O  0.08159455  0.55207484  0.33191402    -0.38440
O689        O  0.17127416  0.42770742  0.42063236    -0.39140
O690        O  0.16351186  0.50478850  0.43586006    -0.39210
C691        C  0.10455566  0.02661060  0.38360458    -0.11490
C692        C  0.12839184  0.05336249  0.38484514     0.05520
C693        C  0.15165523  0.02833411  0.37675313    -0.06780
C694        C  0.15025543  0.97669691  0.36793037    -0.07520
C695        C  0.12639848  0.94972727  0.36713906    -0.02070
C696        C  0.10315983  0.97534352  0.37467753     0.04750
N697        N  0.07792057  0.95093679  0.37225441     0.67250
H698        H  0.08666728  0.04664267  0.38878165     0.16150
H699        H  0.16804643  0.95690478  0.36227443     0.15860
N700        N  0.17650609  0.05477776  0.37636065     0.74960
O701        O  0.05988660  0.96185644  0.38785400    -0.38490
O702        O  0.07250156  0.92402239  0.35270376    -0.38440
O703        O  0.18294134  0.08535659  0.39420820    -0.39140
O704        O  0.19335269  0.04307639  0.35965942    -0.39210
C705        C  0.24628173  0.22381325  0.41308058    -0.11490
C706        C  0.22475526  0.24284839  0.42673312     0.05520
C707        C  0.22838283  0.25896877  0.45238013    -0.06780
C708        C  0.25345767  0.26026684  0.46310039    -0.07520
C709        C  0.27506513  0.24243649  0.44938855    -0.02070
C710        C  0.27138141  0.22096914  0.42444946     0.04750
N711        N  0.29206969  0.19377226  0.41104983     0.67250
H712        H  0.24316326  0.20906261  0.39387528     0.16150
H713        H  0.25606518  0.27515697  0.48237612     0.15860
N714        N  0.20668086  0.27292945  0.46810037     0.74960
O715        O  0.28728818  0.17113241  0.39007385    -0.38490
O716        O  0.31415472  0.18651628  0.42127827    -0.38440
O717        O  0.19208036  0.23724716  0.47645549    -0.39140
O718        O  0.20644592  0.31679867  0.47896212    -0.39210
C719        C  0.10972181  0.47149472  0.13404094    -0.11490
C720        C  0.13311806  0.44373321  0.13091468     0.05520
C721        C  0.15481513  0.46896296  0.11961589    -0.06780
C722        C  0.15273629  0.52086973  0.11185321    -0.07520
C723        C  0.12938736  0.54861736  0.11521853    -0.02070
C724        C  0.10764997  0.52326645  0.12631932     0.04750
N725        N  0.08302448  0.54896940  0.12917431     0.67250
H726        H  0.09265492  0.45268107  0.14211960     0.16150
H727        H  0.16973041  0.53992842  0.10376791     0.15860
N728        N  0.17938855  0.44317350  0.11671372     0.74960
O729        O  0.06525000  0.54159384  0.11276599    -0.38490
O730        O  0.07747791  0.57082864  0.15012530    -0.38440
O731        O  0.18465338  0.42039902  0.09593476    -0.39140
O732        O  0.19733949  0.45101958  0.13288181    -0.39210
C733        C  0.14469502  0.01785934  0.14429691    -0.11490
C734        C  0.12832192  0.05105808  0.13024763     0.05520
C735        C  0.11381359  0.02979871  0.10949388    -0.06780
C736        C  0.11565491  0.97671973  0.10379115    -0.07520
C737        C  0.13192945  0.94344763  0.11789246    -0.02070
C738        C  0.14652935  0.96469386  0.13859964     0.04750
N739        N  0.16255687  0.93298226  0.15479389     0.67250
H740        H  0.15586486  0.03297270  0.16031834     0.16150
H741        H  0.10441188  0.96167658  0.08780127     0.15860
N742        N  0.09735162  0.06123420  0.09360097     0.74960
O743        O  0.18593395  0.94614527  0.15919930    -0.38490
O744        O  0.15195585  0.89911817  0.16881975    -0.38440
O745        O  0.10759049  0.09271032  0.07803342    -0.39140
O746        O  0.07344803  0.04982960  0.09122163    -0.39210
C747        C  0.10863328  0.26580494  0.28754035    -0.11490
C748        C  0.13271031  0.25275082  0.29896750     0.05520
C749        C  0.15425160  0.24053015  0.28314732    -0.06780
C750        C  0.15107479  0.24188859  0.25643012    -0.07520
C751        C  0.12692553  0.25448127  0.24513477    -0.02070
C752        C  0.10541814  0.26702848  0.26089602     0.04750
N753        N  0.07993041  0.27810099  0.25051521     0.67250
H754        H  0.09201842  0.27534558  0.29953246     0.16150
H755        H  0.16743225  0.23146363  0.24427448     0.15860
N756        N  0.17881811  0.22361035  0.29363625     0.74960
O757        O  0.05976631  0.26086724  0.26157082    -0.38490
O758        O  0.07720034  0.31122674  0.23293225    -0.38440
O759        O  0.17932677  0.18959843  0.31102647    -0.39140
O760        O  0.19996401  0.23633605  0.28287170    -0.39210
C761        C  0.14402514  0.28039407  0.00654848    -0.11490
C762        C  0.12087443  0.26325600  0.49496308     0.05520
C763        C  0.09986610  0.24614989  0.01033914    -0.06780
C764        C  0.10353019  0.24416201  0.03702745    -0.07520
C765        C  0.12756687  0.25787230  0.04865712    -0.02070
C766        C  0.14788601  0.27678385  0.03298110     0.04750
N767        N  0.17278014  0.29119116  0.04330880     0.67250
H768        H  0.15944533  0.29619136  0.49482651     0.16150
H769        H  0.08751421  0.23046648  0.04876455     0.15860
N770        N  0.07480966  0.23152992  0.49962068     0.74960
O771        O  0.19269402  0.26416323  0.03816598    -0.38490
O772        O  0.17559441  0.33487786  0.05398177    -0.38440
O773        O  0.07249581  0.21839436  0.47642641    -0.39140
O774        O  0.05464104  0.23132375  0.01356142    -0.39210
C775        C  0.25561908  0.26494365  0.20847759    -0.11490
C776        C  0.27595222  0.23860651  0.19581802     0.05520
C777        C  0.27053900  0.21638992  0.17132450    -0.06780
C778        C  0.24572806  0.22222202  0.16020245    -0.07520
C779        C  0.22548778  0.24732236  0.17313696    -0.02070
C780        C  0.23035351  0.26911867  0.19769908     0.04750
N781        N  0.21014605  0.29576603  0.21188065     0.67250
H782        H  0.25944123  0.28250482  0.22697249     0.16150
H783        H  0.24178227  0.20420935  0.14180696     0.15860
N784        N  0.28946022  0.18602456  0.15764995     0.74960
O785        O  0.21233369  0.30194065  0.23578428    -0.38490
O786        O  0.19115148  0.31699708  0.20050287    -0.38440
O787        O  0.29635084  0.14251528  0.16652457    -0.39140
O788        O  0.29381701  0.19573210  0.13435832    -0.39210
C789        C  0.89299311  0.47611300  0.38587428    -0.11490
C790        C  0.87074282  0.44629823  0.38066359     0.05520
C791        C  0.84999207  0.46792283  0.36614900    -0.06780
C792        C  0.85209424  0.51975215  0.35773951    -0.07520
C793        C  0.87425719  0.55002894  0.36337134    -0.02070
C794        C  0.89521765  0.52733057  0.37720867     0.04750
N795        N  0.91932718  0.55471917  0.38170188     0.67250
H796        H  0.90926781  0.45859864  0.39602776     0.16150
H797        H  0.83597942  0.53707775  0.34730976     0.15860
N798        N  0.82712421  0.43807432  0.35924089     0.74960
O799        O  0.93141677  0.54895467  0.40261036    -0.38490
O800        O  0.93046752  0.57836945  0.36356998    -0.38440
O801        O  0.81891037  0.40190957  0.37341340    -0.39140
O802        O  0.81387304  0.45027232  0.33972624    -0.39210
C803        C  0.89136508  0.02663674  0.37816938    -0.11490
C804        C  0.86732287  0.05217356  0.38153563     0.05520
C805        C  0.84394056  0.02411088  0.37738653    -0.06780
C806        C  0.84500437  0.97170305  0.37011793    -0.07520
C807        C  0.86899135  0.94631887  0.36622524    -0.02070
C808        C  0.89254792  0.97407353  0.37065953     0.04750
N809        N  0.91768102  0.94925997  0.36881854     0.67250
H810        H  0.90940600  0.04775679  0.38150110     0.16150
H811        H  0.82682318  0.95081067  0.36714973     0.15860
N812        N  0.81890596  0.04767554  0.38124369     0.74960
O813        O  0.93714074  0.97436979  0.36056215    -0.38490
O814        O  0.92136935  0.90526097  0.37886773    -0.38440
O815        O  0.80907081  0.07536719  0.36378651    -0.39140
O816        O  0.80455972  0.03216970  0.39933238    -0.39210
C817        C  0.98526503  0.24024285  0.37634168    -0.11490
C818        C  0.97236060  0.24539118  0.39990523     0.05520
C819        C  0.98718126  0.25588826  0.42225843    -0.06780
C820        C  0.01451863  0.26082278  0.42028918    -0.07520
C821        C  0.02742254  0.25481546  0.39674371    -0.02070
C822        C  0.01251096  0.24507207  0.37436746     0.04750
N823        N  0.02440259  0.24245488  0.34941626     0.67250
H824        H  0.97384491  0.23373461  0.35911163     0.16150
H825        H  0.02590050  0.26815154  0.43745290     0.15860
N826        N  0.97502440  0.26375940  0.44677550     0.74960
O827        O  0.01480097  0.21324456  0.33235779    -0.38490
O828        O  0.04200404  0.27448865  0.34321147    -0.38440
O829        O  0.95813107  0.23208971  0.45490346    -0.39140
O830        O  0.98408581  0.29747621  0.46199604    -0.39210
C831        C  0.89310385  0.52850752  0.12902832    -0.11490
C832        C  0.87269493  0.54970846  0.11422552     0.05520
C833        C  0.85101149  0.51773855  0.10823984    -0.06780
C834        C  0.85023238  0.46630970  0.11718319    -0.07520
C835        C  0.87068286  0.44501431  0.13194383    -0.02070
C836        C  0.89230856  0.47715474  0.13803251     0.04750
N837        N  0.91382642  0.45857791  0.15304412     0.67250
H838        H  0.90986188  0.55230817  0.13401922     0.16150
H839        H  0.83341705  0.44264231  0.11223950     0.15860
N840        N  0.82924273  0.53686874  0.09375703     0.74960
O841        O  0.93676634  0.46161518  0.14425942    -0.38490
O842        O  0.91065379  0.45014177  0.17663982    -0.38440
O843        O  0.83189959  0.54562284  0.07013073    -0.39140
O844        O  0.80650299  0.53412170  0.10304746    -0.39210
C845        C  0.84758471  0.02694078  0.12371859    -0.11490
C846        C  0.87155688  0.04844790  0.13145922     0.05520
C847        C  0.89454955  0.01803380  0.13029274    -0.06780
C848        C  0.89298635  0.96710979  0.12073361    -0.07520
C849        C  0.86904575  0.94552975  0.11292023    -0.02070
C850        C  0.84602579  0.97595731  0.11412004     0.04750
N851        N  0.82135741  0.95683000  0.10458254     0.67250
H852        H  0.83018630  0.05099291  0.12398643     0.16150
H853        H  0.91042644  0.94317524  0.12048178     0.15860
N854        N  0.91927097  0.03730783  0.13966610     0.74960
O855        O  0.80015515  0.97460520  0.11333864    -0.38490
O856        O  0.82059655  0.92723058  0.08527709    -0.38440
O857        O  0.92011763  0.06791464  0.15858398    -0.39140
O858        O  0.94043927  0.01905995  0.13106799    -0.39210
C859        C  0.98573625  0.25268672  0.12618827    -0.11490
C860        C  0.97231889  0.25437245  0.14959739     0.05520
C861        C  0.98672207  0.25866214  0.17269219    -0.06780
C862        C  0.01416473  0.26227515  0.17161064    -0.07520
C863        C  0.02751653  0.25994626  0.14817723    -0.02070
C864        C  0.01306961  0.25602210  0.12509016     0.04750
N865        N  0.02563336  0.25745315  0.10041855     0.67250
H866        H  0.97472616  0.25053530  0.10845821     0.16150
H867        H  0.02528903  0.26419280  0.18927416     0.15860
N868        N  0.97412132  0.25620404  0.19728498     0.74960
O869        O  0.01583781  0.23309015  0.08169896    -0.38490
O870        O  0.04435879  0.28840139  0.09638541    -0.38440
O871        O  0.95564985  0.22452373  0.20105217    -0.39140
O872        O  0.98386024  0.27991773  0.21622586    -0.39210
C873        C  0.89539234  0.24140554  0.25869293    -0.11490
C874        C  0.87216478  0.24169971  0.24456831     0.05520
C875        C  0.84785708  0.24242754  0.25749522    -0.06780
C876        C  0.84745675  0.24360121  0.28435901    -0.07520
C877        C  0.87069697  0.24348495  0.29867211    -0.02070
C878        C  0.89496801  0.24193742  0.28547756     0.04750
N879        N  0.91940968  0.23972633  0.29883692     0.67250
H880        H  0.91404347  0.24054946  0.24883453     0.16150
H881        H  0.82877340  0.24477583  0.29410999     0.15860
N882        N  0.82346004  0.24348917  0.24380851     0.74960
O883        O  0.93233244  0.19794589  0.29884659    -0.38490
O884        O  0.93043774  0.28138845  0.30572373    -0.38440
O885        O  0.81893398  0.21062927  0.22640580    -0.39140
O886        O  0.80488550  0.27132923  0.25189322    -0.39210
C887        C  0.85121397  0.22829176  0.00600734    -0.11490
C888        C  0.87379045  0.24936613  0.49479817     0.05520
C889        C  0.89386863  0.26987938  0.01044976    -0.06780
C890        C  0.89077381  0.26785843  0.03712086    -0.07520
C891        C  0.86819217  0.24688616  0.04846061    -0.02070
C892        C  0.84815967  0.22628837  0.03273035     0.04750
N893        N  0.82540691  0.20120087  0.04329552     0.67250
H894        H  0.83605169  0.21240761  0.49374038     0.16150
H895        H  0.90602963  0.28365311  0.04930409     0.15860
N896        N  0.91746312  0.29218611  0.49993065     0.74960
O897        O  0.80425781  0.20022632  0.03077193    -0.38490
O898        O  0.82721189  0.17407591  0.06334341    -0.38440
O899        O  0.91753816  0.31301232  0.47806636    -0.39140
O900        O  0.93799698  0.29463610  0.01334663    -0.39210
C901        C  0.63944312  0.45655500  0.01407419    -0.11490
C902        C  0.63089001  0.44130498  0.48955951     0.05520
C903        C  0.62216992  0.47995660  0.47237300    -0.06780
C904        C  0.62220114  0.53220160  0.48000250    -0.07520
C905        C  0.63043517  0.54748250  0.00464977    -0.02070
C906        C  0.63941192  0.50881632  0.02174585     0.04750
N907        N  0.64801726  0.52135788  0.04712395     0.67250
H908        H  0.64610586  0.42751877  0.02760591     0.16150
H909        H  0.61546719  0.56106204  0.46641831     0.15860
N910        N  0.61374672  0.46737648  0.44693940     0.74960
O911        O  0.63671064  0.50098617  0.06609073    -0.38490
O912        O  0.66990085  0.54319321  0.05033805    -0.38440
O913        O  0.59139284  0.44766498  0.44352086    -0.39140
O914        O  0.62563658  0.48680617  0.42807404    -0.39210
C915        C  0.65086588  0.02278854  0.49396967    -0.11490
C916        C  0.62635374  0.04689307  0.49192789     0.05520
C917        C  0.60356101  0.01888703  0.49869167    -0.06780
C918        C  0.60600085  0.96768254  0.00765900    -0.07520
C919        C  0.63050197  0.94331118  0.00955189    -0.02070
C920        C  0.65332466  0.97166815  0.00309098     0.04750
N921        N  0.67906832  0.95029376  0.00679738     0.67250
H922        H  0.66835109  0.04486194  0.48956079     0.16150
H923        H  0.58845388  0.94574799  0.01198338     0.15860
N924        N  0.57783281  0.04073518  0.49543837     0.74960
O925        O  0.69768041  0.96407354  0.49245707    -0.38490
O926        O  0.68410357  0.92358001  0.02645869    -0.38440
O927        O  0.57270432  0.06881239  0.47626682    -0.39140
O928        O  0.55934548  0.02679183  0.00989384    -0.39210
C929        C  0.51374147  0.25826302  0.44856398    -0.11490
C930        C  0.52666205  0.25134262  0.47208856     0.05520
C931        C  0.51165085  0.24260502  0.99444061    -0.06780
C932        C  0.48438903  0.23968556  0.99255482    -0.07520
C933        C  0.47144941  0.24610965  0.46908930    -0.02070
C934        C  0.48628999  0.25540671  0.44668309     0.04750
N935        N  0.47408234  0.26422064  0.42224127     0.67250
H936        H  0.52513709  0.26485114  0.43139280     0.16150
H937        H  0.47302393  0.23390787  0.00983901     0.15860
N938        N  0.52352911  0.23936532  0.01936903     0.74960
O939        O  0.48361137  0.29733597  0.40706726    -0.38490
O940        O  0.45649117  0.23392695  0.41414039    -0.38440
O941        O  0.53997088  0.27318546  0.02638286    -0.39140
O942        O  0.51475364  0.20774210  0.03570808    -0.39210
C943        C  0.72666183  0.24165391  0.42081394    -0.11490
C944        C  0.72446910  0.24247931  0.44772939     0.05520
C945        C  0.74738999  0.24834050  0.46259073    -0.06780
C946        C  0.77164590  0.25367958  0.45015033    -0.07520
C947        C  0.77388053  0.25246233  0.42323196    -0.02070
C948        C  0.75092587  0.24714885  0.40834053     0.04750
N949        N  0.75156319  0.25008228  0.38081646     0.67250
H950        H  0.70907204  0.23889450  0.40930998     0.16150
H951        H  0.78919450  0.25688853  0.46173023     0.15860
N952        N  0.74669919  0.24653793  0.49012176     0.74960
O953        O  0.73451375  0.22657710  0.36763759    -0.38490
O954        O  0.76663768  0.28183322  0.36979814    -0.38440
O955        O  0.73218139  0.21418958  0.00142977    -0.39140
O956        O  0.76307654  0.27226221  0.00309881    -0.39210
C957        C  0.65138928  0.47632120  0.24566344    -0.11490
C958        C  0.62707247  0.45449800  0.23932487     0.05520
C959        C  0.60428900  0.48559144  0.24081703    -0.06780
C960        C  0.60652549  0.53759731  0.24875220    -0.07520
C961        C  0.63084173  0.55936859  0.25524848    -0.02070
C962        C  0.65356541  0.52828872  0.25352877     0.04750
N963        N  0.67874521  0.54774728  0.26095657     0.67250
H964        H  0.66885009  0.45246648  0.24488303     0.16150
H965        H  0.58908362  0.56147534  0.24963629     0.15860
N966        N  0.57903922  0.46628205  0.23320582     0.74960
O967        O  0.69185555  0.52372110  0.27766948    -0.38490
O968        O  0.69001350  0.58145138  0.24734088    -0.38440
O969        O  0.56999141  0.42511702  0.24285401    -0.39140
O970        O  0.56410609  0.49450310  0.21989091    -0.39210
C971        C  0.65080512  0.98147267  0.26127747    -0.11490
C972        C  0.62707806  0.95499044  0.25759459     0.05520
C973        C  0.60610330  0.98096083  0.24534404    -0.06780
C974        C  0.60959951  0.03208730  0.23674353    -0.07520
C975        C  0.63332060  0.05873168  0.24038452    -0.02070
C976        C  0.65437496  0.03255038  0.25248280     0.04750
N977        N  0.67979736  0.05595427  0.25491619     0.67250
H978        H  0.66720621  0.96131819  0.26989907     0.16150
H979        H  0.59313409  0.05195439  0.22808790     0.15860
N980        N  0.58084772  0.95700156  0.24235638     0.74960
O981        O  0.69343268  0.04782726  0.27469038    -0.38490
O982        O  0.69030364  0.07750191  0.23581125    -0.38440
O983        O  0.57051795  0.93302539  0.26084047    -0.39140
O984        O  0.56734031  0.96574492  0.22256184    -0.39210
C985        C  0.48752775  0.24258979  0.24664503    -0.11490
C986        C  0.47429866  0.25161720  0.22346048     0.05520
C987        C  0.48903280  0.25735932  0.20073296    -0.06780
C988        C  0.51638510  0.25296664  0.20167549    -0.07520
C989        C  0.52950713  0.24490220  0.22492900    -0.02070
C990        C  0.51490496  0.23927034  0.24775826     0.04750
N991        N  0.52734432  0.22863803  0.27198341     0.67250
H992        H  0.47637094  0.23758338  0.26410035     0.16150
H993        H  0.52755871  0.25784481  0.18421666     0.15860
N994        N  0.47671246  0.26676496  0.17652005     0.74960
O995        O  0.51679339  0.24340807  0.29259865    -0.38490
O996        O  0.54715614  0.19943916  0.27312588    -0.38440
O997        O  0.46583118  0.30998842  0.17243146    -0.39140
O998        O  0.48185558  0.23755689  0.15774894    -0.39210
C999        C  0.64578149  0.21363428  0.33660134    -0.11490
C1000       C  0.63497479  0.25624988  0.32373877     0.05520
C1001       C  0.62132027  0.29458331  0.33783390    -0.06780
C1002       C  0.61807199  0.28837966  0.36426001    -0.07520
C1003       C  0.62862172  0.24548593  0.37727523    -0.02070
C1004       C  0.64297576  0.20792408  0.36315296     0.04750
N1005       N  0.65521049  0.16426172  0.37528302     0.67250
H1006       H  0.65618183  0.18406660  0.32587399     0.16150
H1007       H  0.60747212  0.31796261  0.37476610     0.15860
N1008       N  0.61114443  0.34054729  0.32575971     0.74960
O1009       O  0.65180067  0.11917186  0.36630120    -0.38490
O1010       O  0.67301781  0.17159584  0.39166590    -0.38440
O1011       O  0.58964761  0.35963617  0.33303141    -0.39140
O1012       O  0.62494160  0.36546803  0.30993542    -0.39210
C1013       C  0.60865280  0.27691949  0.11295830    -0.11490
C1014       C  0.62742757  0.24932208  0.12690792     0.05520
C1015       C  0.64751041  0.22260318  0.11381133    -0.06780
C1016       C  0.64927087  0.22673342  0.08710913    -0.07520
C1017       C  0.63034441  0.25376527  0.07307009    -0.02070
C1018       C  0.60945046  0.27856568  0.08609994     0.04750
N1019       N  0.58912931  0.30586715  0.07255704     0.67250
H1020       H  0.59330304  0.29742836  0.12309306     0.16150
H1021       H  0.66456997  0.20589252  0.07706320     0.15860
N1022       N  0.66554018  0.18951466  0.12710264     0.74960
O1023       O  0.56617672  0.30705541  0.08145441    -0.38490
O1024       O  0.59442458  0.33268296  0.05301481    -0.38440
O1025       O  0.65688851  0.15532427  0.14218284    -0.39140
O1026       O  0.68901896  0.18670270  0.11976009    -0.39210
C1027       C  0.74589409  0.29587094  0.20461053    -0.11490
C1028       C  0.72705695  0.25749227  0.19971200     0.05520
C1029       C  0.73257228  0.21732098  0.18184334    -0.06780
C1030       C  0.75687803  0.21747413  0.16929263    -0.07520
C1031       C  0.77567506  0.25588552  0.17400348    -0.02070
C1032       C  0.77056002  0.29527650  0.19250356     0.04750
N1033       N  0.78989278  0.33383638  0.19983310     0.67250
H1034       H  0.74126116  0.32626453  0.21825274     0.16150
H1035       H  0.76141402  0.18696892  0.15566877     0.15860
N1036       N  0.71408377  0.17629802  0.17600007     0.74960
O1037       O  0.78403109  0.36933077  0.21554766    -0.38490
O1038       O  0.81319127  0.33153412  0.19195456    -0.38440
O1039       O  0.69033551  0.17957913  0.18232351    -0.39140
O1040       O  0.72140841  0.13648240  0.16379082    -0.39210
Zn1041     Zn  0.64646200  0.30683384  0.70241454     1.49720
Zn1042     Zn  0.65764856  0.22126733  0.74537195     1.49360
Zn1043     Zn  0.60724553  0.29203181  0.74827836     1.49110
Zn1044     Zn  0.61034312  0.20618687  0.70537376     1.49480
O1045       O  0.63058275  0.25626980  0.72525138    -1.83350
O1046       O  0.68510551  0.29454097  0.70046994    -0.73980
O1047       O  0.65526699  0.24103751  0.78312771    -0.73800
O1048       O  0.61266714  0.36876661  0.74683332    -0.73310
O1049       O  0.69368782  0.23309360  0.72932901    -0.73990
O1050       O  0.64021631  0.38112996  0.71454510    -0.73590
O1051       O  0.61477093  0.27260358  0.78411173    -0.74180
O1052       O  0.57129398  0.21837359  0.70966881    -0.73570
O1053       O  0.65057627  0.14434187  0.74531955    -0.74320
O1054       O  0.56963862  0.27635606  0.74122852    -0.73710
O1055       O  0.61808389  0.13319919  0.71758975    -0.74180
O1056       O  0.61876404  0.21327804  0.66778828    -0.74090
O1057       O  0.63471356  0.29395556  0.66589389    -0.73880
C1058       C  0.70084701  0.26303957  0.71113741     0.77910
C1059       C  0.63525610  0.25692602  0.79549981     0.78400
C1060       C  0.62623108  0.39870598  0.73282987     0.77360
C1061       C  0.55833799  0.24653395  0.72523533     0.77740
C1062       C  0.63437030  0.11489490  0.73376646     0.78870
C1063       C  0.62687061  0.25226713  0.65503789     0.77920
Zn1064     Zn  0.65503049  0.27909229  0.99473596     1.49720
Zn1065     Zn  0.60434870  0.20931164  0.49817372     1.49360
Zn1066     Zn  0.60795742  0.29296415  0.95463687     1.49110
Zn1067     Zn  0.64338560  0.19295449  0.95287205     1.49480
O1068       O  0.62772954  0.24410100  0.97517882    -1.83350
O1069       O  0.65193317  0.26021780  0.53264697    -0.73980
O1070       O  0.56701330  0.22160228  0.98894453    -0.73800
O1071       O  0.61528989  0.36658043  0.96664041    -0.73310
O1072       O  0.61021236  0.23481971  0.53365106    -0.73990
O1073       O  0.64779097  0.35593648  0.99437784    -0.73590
O1074       O  0.56870171  0.28018218  0.95783239    -0.74180
O1075       O  0.62952447  0.19989387  0.91709210    -0.73570
O1076       O  0.61092397  0.13255901  0.99848922    -0.74320
O1077       O  0.61866665  0.28346703  0.91776914    -0.73710
O1078       O  0.63930411  0.11988120  0.96687342    -0.74180
O1079       O  0.68141502  0.20879111  0.94836382    -0.74090
O1080       O  0.69126705  0.26727094  0.97823589    -0.73880
C1081       C  0.63094802  0.24976988  0.54494911     0.77910
C1082       C  0.55564534  0.25108009  0.97290013     0.78400
C1083       C  0.63146479  0.38513253  0.98286635     0.77360
C1084       C  0.62524623  0.24255543  0.90548147     0.77740
C1085       C  0.62536349  0.10261902  0.98522417     0.78870
C1086       C  0.69781545  0.23897783  0.95909863     0.77920
Zn1087     Zn  0.89467996  0.20976873  0.62424590     1.49720
Zn1088     Zn  0.84503821  0.28352419  0.62653132     1.49360
Zn1089     Zn  0.85397449  0.19626213  0.66812028     1.49110
Zn1090     Zn  0.89120388  0.29508941  0.66774507     1.49480
O1091       O  0.87133109  0.24672710  0.64664113    -1.83350
O1092       O  0.88766926  0.23017892  0.58828950    -0.73980
O1093       O  0.80905379  0.27775137  0.64369632    -0.73800
O1094       O  0.85701457  0.12296774  0.65439850    -0.73310
O1095       O  0.84694221  0.26125112  0.58882818    -0.73990
O1096       O  0.88866301  0.13280328  0.62566965    -0.73590
O1097       O  0.81644600  0.21466453  0.67187467    -0.74180
O1098       O  0.88163974  0.28341266  0.70512249    -0.73570
O1099       O  0.85385052  0.35957357  0.62621999    -0.74320
O1100       O  0.86679366  0.20177080  0.70422747    -0.73710
O1101       O  0.88453720  0.36960369  0.65586451    -0.74180
O1102       O  0.93022304  0.28199904  0.66401364    -0.74090
O1103       O  0.93221694  0.22423272  0.63239880    -0.73880
C1104       C  0.86724761  0.24579429  0.57669221     0.77910
C1105       C  0.80159157  0.24885573  0.66216836     0.78400
C1106       C  0.87253811  0.10425314  0.63771613     0.77360
C1107       C  0.87372603  0.24235312  0.71647539     0.77740
C1108       C  0.86962585  0.38857267  0.63861472     0.78870
C1109       C  0.94338779  0.25325810  0.64886322     0.77920
Zn1110     Zn  0.84389698  0.21504656  0.87692537     1.49720
Zn1111     Zn  0.85505323  0.29995569  0.91954932     1.49360
Zn1112     Zn  0.89144142  0.19973317  0.91704599     1.49110
Zn1113     Zn  0.89440013  0.28578718  0.87466524     1.49480
O1114       O  0.87109646  0.24929591  0.89715306    -1.83350
O1115       O  0.80721727  0.22787239  0.89266192    -0.73980
O1116       O  0.86822655  0.29162548  0.95531792    -0.73800
O1117       O  0.88414673  0.12604941  0.90414946    -0.73310
O1118       O  0.81713530  0.28450210  0.92333799    -0.73990
O1119       O  0.85051564  0.13787694  0.87770541    -0.73590
O1120       O  0.88226525  0.20933501  0.95466960    -0.74180
O1121       O  0.93198175  0.27560201  0.88393591    -0.73570
O1122       O  0.85881659  0.37360225  0.90626694    -0.74320
O1123       O  0.93057916  0.21331937  0.91326221    -0.73710
O1124       O  0.88646809  0.36167344  0.87396950    -0.74180
O1125       O  0.88935672  0.26139199  0.83919723    -0.74090
O1126       O  0.84818955  0.23369533  0.83886572    -0.73880
C1127       C  0.80062844  0.25550307  0.91203675     0.77910
C1128       C  0.87519413  0.25019878  0.96675985     0.78400
C1129       C  0.86715518  0.10820963  0.88844361     0.77360
C1130       C  0.94344198  0.24507181  0.89942789     0.77740
C1131       C  0.87185287  0.39092416  0.88733895     0.78870
C1132       C  0.86926572  0.24600335  0.82706442     0.77920
Zn1133     Zn  0.10879334  0.29866568  0.66691050     1.49720
Zn1134     Zn  0.10500898  0.21291585  0.62479432     1.49360
Zn1135     Zn  0.15593488  0.28129070  0.62668979     1.49110
Zn1136     Zn  0.14442736  0.19859388  0.67015230     1.49480
O1137       O  0.12865457  0.24846438  0.64726293    -1.83350
O1138       O  0.06953136  0.28766030  0.66288459    -0.73980
O1139       O  0.11034982  0.23658255  0.58925620    -0.73800
O1140       O  0.14997377  0.35805136  0.62718637    -0.73310
O1141       O  0.06760855  0.22602864  0.63313521    -0.73990
O1142       O  0.11690662  0.37076240  0.65401745    -0.73590
O1143       O  0.15152455  0.26365045  0.58860820    -0.74180
O1144       O  0.18240003  0.21526477  0.67428301    -0.73570
O1145       O  0.11195408  0.13698782  0.62483485    -0.74320
O1146       O  0.19238921  0.26883293  0.64232028    -0.73710
O1147       O  0.14035443  0.12461151  0.65628862    -0.74180
O1148       O  0.13129983  0.20863172  0.70611010    -0.74090
O1149       O  0.11811726  0.29116095  0.70428814    -0.73880
C1150       C  0.05640093  0.25777393  0.64819901     0.77910
C1151       C  0.13021151  0.25244580  0.57695248     0.78400
C1152       C  0.13364377  0.38805482  0.63805824     0.77360
C1153       C  0.19876723  0.24351045  0.66243076     0.77740
C1154       C  0.12672480  0.10703917  0.63762128     0.78870
C1155       C  0.12484608  0.25111319  0.71704500     0.77920
Zn1156     Zn  0.10644058  0.21378282  0.87431798     1.49720
Zn1157     Zn  0.10751199  0.30297362  0.91534195     1.49360
Zn1158     Zn  0.14269672  0.20279407  0.92189098     1.49110
Zn1159     Zn  0.15708487  0.28402673  0.87779183     1.49480
O1160       O  0.12871466  0.25172289  0.89736948    -1.83350
O1161       O  0.06844830  0.22434546  0.88182307    -0.73980
O1162       O  0.11451028  0.29864916  0.95346685    -0.73800
O1163       O  0.13845311  0.12788880  0.91034007    -0.73310
O1164       O  0.06869401  0.28872798  0.91019205    -0.73990
O1165       O  0.11429515  0.13797717  0.87530863    -0.73590
O1166       O  0.12811421  0.21649717  0.95693455    -0.74180
O1167       O  0.19300406  0.26876209  0.89502400    -0.73570
O1168       O  0.11575725  0.37497225  0.90182439    -0.74320
O1169       O  0.18078546  0.21565951  0.92639884    -0.73710
O1170       O  0.15090060  0.36192622  0.87732665    -0.74180
O1171       O  0.15431744  0.26393279  0.83970393    -0.74090
O1172       O  0.11315978  0.23570103  0.83874665    -0.73880
C1173       C  0.05636956  0.25618514  0.89621336     0.77910
C1174       C  0.12072591  0.25925076  0.96694288     0.78400
C1175       C  0.12722908  0.10934298  0.89053289     0.77360
C1176       C  0.19824656  0.24213369  0.91510859     0.77740
C1177       C  0.13358370  0.39180838  0.88691861     0.78870
C1178       C  0.13375038  0.25058593  0.82729405     0.77920
Zn1179     Zn  0.39590017  0.20917834  0.74737226     1.49720
Zn1180     Zn  0.39343404  0.29483823  0.70488823     1.49360
Zn1181     Zn  0.35792171  0.19454366  0.70133229     1.49110
Zn1182     Zn  0.34492123  0.28002621  0.74339666     1.49480
O1183       O  0.37289727  0.24527140  0.72430162    -1.83350
O1184       O  0.43367593  0.22154540  0.73940566    -0.73980
O1185       O  0.38450231  0.28712892  0.66753037    -0.73800
O1186       O  0.36144681  0.12079276  0.71501884    -0.73310
O1187       O  0.43240036  0.28179133  0.70914492    -0.73990
O1188       O  0.38880519  0.13249408  0.74764809    -0.73590
O1189       O  0.37124647  0.20445461  0.66546461    -0.74180
O1190       O  0.30855342  0.26566222  0.72700581    -0.73570
O1191       O  0.38562320  0.36796411  0.71695303    -0.74320
O1192       O  0.32011494  0.20944124  0.69704899    -0.73710
O1193       O  0.35109765  0.35734708  0.74223158    -0.74180
O1194       O  0.34855463  0.26360735  0.78165120    -0.74090
O1195       O  0.38930430  0.23371889  0.78257495    -0.73880
C1196       C  0.44527951  0.25161235  0.72378729     0.77910
C1197       C  0.37741892  0.24724082  0.65476434     0.78400
C1198       C  0.37427413  0.10316068  0.73410078     0.77360
C1199       C  0.30279843  0.23754349  0.70750924     0.77740
C1200       C  0.36808234  0.38654158  0.73170951     0.78870
C1201       C  0.36921969  0.25088724  0.79406408     0.77920
Zn1202     Zn  0.39501959  0.29192190  0.49616314     1.49720
Zn1203     Zn  0.35335905  0.30475738  0.95306365     1.49360
Zn1204     Zn  0.38960807  0.20649458  0.95290512     1.49110
Zn1205     Zn  0.34544808  0.22041676  0.99607067     1.49480
O1206       O  0.37100774  0.25526003  0.97456201    -1.83350
O1207       O  0.38753481  0.36822205  0.99598767    -0.73980
O1208       O  0.36658753  0.30133193  0.91718680    -0.73800
O1209       O  0.42890013  0.21808977  0.95581918    -0.73310
O1210       O  0.35586621  0.37781501  0.96723021    -0.73990
O1211       O  0.43205879  0.27888501  0.98595945    -0.73590
O1212       O  0.37899110  0.21836528  0.91582509    -0.74180
O1213       O  0.35434510  0.14464796  0.99686443    -0.73570
O1214       O  0.31619701  0.28298068  0.94901428    -0.74320
O1215       O  0.38240988  0.13273796  0.96492661    -0.73710
O1216       O  0.30876036  0.22613553  0.98026849    -0.74180
O1217       O  0.34907589  0.24339411  0.53342533    -0.74090
O1218       O  0.39054456  0.26943060  0.53222943    -0.73880
C1219       C  0.37096086  0.39659694  0.98436612     0.77910
C1220       C  0.37197058  0.26027609  0.90466623     0.78400
C1221       C  0.44259403  0.24823649  0.96985737     0.77360
C1222       C  0.36882503  0.11503605  0.98344374     0.77740
C1223       C  0.30127599  0.25111573  0.96043324     0.78870
C1224       C  0.37045923  0.25545387  0.54474551     0.77920
Zn1225     Zn  0.60722599  0.79356463  0.54196658     1.49720
Zn1226     Zn  0.65524518  0.78154999  0.00281043     1.49360
Zn1227     Zn  0.64352424  0.69511461  0.54499631     1.49110
Zn1228     Zn  0.60615279  0.70871778  0.99851365     1.49480
O1229       O  0.62813974  0.74547724  0.52206955    -1.83350
O1230       O  0.61454215  0.86775491  0.53092037    -0.73980
O1231       O  0.69082677  0.77043994  0.52021656    -0.73800
O1232       O  0.62839387  0.70062098  0.58016017    -0.73310
O1233       O  0.64783340  0.85841209  0.50392188    -0.73990
O1234       O  0.61479762  0.78287358  0.57955872    -0.73590
O1235       O  0.68090414  0.71387592  0.55095939    -0.74180
O1236       O  0.61417377  0.63279994  0.49810683    -0.73570
O1237       O  0.65320983  0.76316985  0.96445489    -0.74320
O1238       O  0.64095886  0.62160589  0.53095931    -0.73710
O1239       O  0.61257067  0.73316175  0.96340522    -0.74180
O1240       O  0.56840271  0.71898886  0.00615029    -0.74090
O1241       O  0.56872798  0.77940763  0.53663290    -0.73880
C1242       C  0.63124280  0.88697433  0.51544945     0.77910
C1243       C  0.69703598  0.74434013  0.54016484     0.78400
C1244       C  0.62108300  0.74173847  0.59169463     0.77360
C1245       C  0.62845835  0.60341357  0.51179836     0.77740
C1246       C  0.63277560  0.74976034  0.95188958     0.78870
C1247       C  0.55646252  0.74855545  0.52174780     0.77920
Zn1248     Zn  0.64410125  0.80633085  0.79455829     1.49720
Zn1249     Zn  0.60498738  0.79309199  0.74928299     1.49360
Zn1250     Zn  0.65531414  0.72107401  0.75188369     1.49110
Zn1251     Zn  0.60774496  0.70608127  0.79119392     1.49480
O1252       O  0.62813992  0.75603928  0.77174924    -1.83350
O1253       O  0.63932717  0.88070233  0.78236048    -0.73980
O1254       O  0.61125168  0.77132177  0.71373498    -0.73800
O1255       O  0.69164393  0.73311474  0.76806621    -0.73310
O1256       O  0.61176359  0.86937395  0.74999806    -0.73990
O1257       O  0.68219278  0.79182817  0.79784602    -0.73590
O1258       O  0.65147649  0.73888481  0.71387510    -0.74180
O1259       O  0.61472885  0.63288842  0.77813619    -0.73570
O1260       O  0.56735390  0.77995527  0.75707214    -0.74320
O1261       O  0.64870819  0.64416706  0.75224968    -0.73710
O1262       O  0.56872363  0.71920964  0.78720333    -0.74180
O1263       O  0.61700713  0.71383296  0.82867290    -0.74090
O1264       O  0.63171415  0.79546211  0.83044277    -0.73880
C1265       C  0.62576666  0.89890554  0.76392104     0.77910
C1266       C  0.63100163  0.75375875  0.70182006     0.78400
C1267       C  0.69846715  0.76165098  0.78704077     0.77360
C1268       C  0.63176766  0.61487504  0.76265659     0.77740
C1269       C  0.55586798  0.74910814  0.77236367     0.78870
C1270       C  0.62444015  0.75364794  0.84136023     0.77920
Zn1271     Zn  0.89472088  0.71222442  0.62246096     1.49720
Zn1272     Zn  0.89364339  0.79784282  0.57989335     1.49360
Zn1273     Zn  0.85690981  0.69888735  0.57532182     1.49110
Zn1274     Zn  0.84456723  0.78402752  0.61799468     1.49480
O1275       O  0.87228793  0.74861202  0.59883731    -1.83350
O1276       O  0.93278362  0.72460045  0.61565160    -0.73980
O1277       O  0.88670273  0.79026150  0.54201532    -0.73800
O1278       O  0.86095089  0.62438613  0.58867531    -0.73310
O1279       O  0.93218381  0.78495150  0.58551864    -0.73990
O1280       O  0.88772910  0.63567941  0.62166513    -0.73590
O1281       O  0.87148177  0.70905773  0.53975130    -0.74180
O1282       O  0.80850598  0.77077954  0.60176817    -0.73570
O1283       O  0.88615945  0.87088658  0.59200284    -0.74320
O1284       O  0.81866725  0.71533722  0.57063178    -0.73710
O1285       O  0.85098793  0.86113719  0.61663484    -0.74180
O1286       O  0.84716229  0.76773680  0.65632352    -0.74090
O1287       O  0.88749820  0.73606116  0.65786312    -0.73880
C1288       C  0.94475796  0.75504078  0.60048548     0.77910
C1289       C  0.87972958  0.75051988  0.52907005     0.78400
C1290       C  0.87381136  0.60607952  0.60761516     0.77360
C1291       C  0.80211902  0.74426391  0.58198102     0.77740
C1292       C  0.86845883  0.88968520  0.60646694     0.78870
C1293       C  0.86739088  0.75413882  0.66906712     0.77920
Zn1294     Zn  0.89242559  0.79928944  0.82976838     1.49720
Zn1295     Zn  0.84455676  0.78424159  0.86916008     1.49360
Zn1296     Zn  0.85537937  0.69838628  0.82631765     1.49110
Zn1297     Zn  0.89423836  0.71220483  0.87140216     1.49480
O1298       O  0.87141493  0.74933691  0.84887725    -1.83350
O1299       O  0.88541919  0.87282359  0.84290964    -0.73980
O1300       O  0.80803654  0.77183925  0.85323556    -0.73800
O1301       O  0.86648373  0.71165747  0.79019019    -0.73310
O1302       O  0.85149861  0.86122800  0.86892890    -0.73990
O1303       O  0.88409958  0.79120822  0.79199581    -0.73590
O1304       O  0.81711781  0.71146777  0.82410745    -0.74180
O1305       O  0.88688685  0.63680748  0.87144743    -0.73570
O1306       O  0.84873674  0.76582919  0.90718562    -0.74320
O1307       O  0.86128577  0.62329173  0.83783944    -0.73710
O1308       O  0.88936943  0.73534207  0.90678404    -0.74180
O1309       O  0.93164704  0.72175952  0.86297699    -0.74090
O1310       O  0.93133128  0.78532534  0.83431779    -0.73880
C1311       C  0.86862138  0.89059971  0.85874612     0.77910
C1312       C  0.80097774  0.74216938  0.83475199     0.78400
C1313       C  0.87510813  0.75255480  0.77935272     0.77360
C1314       C  0.87421147  0.60616879  0.85697885     0.77740
C1315       C  0.86956615  0.75178040  0.91892733     0.78870
C1316       C  0.94360058  0.75325102  0.84848819     0.77920
Zn1317     Zn  0.15766692  0.78197972  0.62098653     1.49720
Zn1318     Zn  0.10800472  0.70942972  0.62465099     1.49360
Zn1319     Zn  0.10915063  0.79537686  0.58200063     1.49110
Zn1320     Zn  0.14640471  0.69720169  0.57833843     1.49480
O1321       O  0.13034226  0.74658757  0.60142087    -1.83350
O1322       O  0.15653363  0.76126626  0.65877716    -0.73980
O1323       O  0.07019688  0.72346647  0.61905911    -0.73800
O1324       O  0.11683763  0.86912955  0.59424280    -0.73310
O1325       O  0.11667161  0.72647764  0.66045420    -0.73990
O1326       O  0.14967202  0.85798801  0.62149438    -0.73590
O1327       O  0.07065315  0.78255419  0.58832477    -0.74180
O1328       O  0.13091474  0.70348213  0.54316796    -0.73570
O1329       O  0.11364647  0.63366444  0.62197067    -0.74320
O1330       O  0.11507331  0.78427979  0.54375709    -0.73710
O1331       O  0.14340335  0.62316074  0.59155728    -0.74180
O1332       O  0.18408879  0.71649034  0.57309339    -0.74090
O1333       O  0.19334850  0.77383027  0.60367530    -0.73880
C1334       C  0.13718093  0.74322054  0.67144396     0.77910
C1335       C  0.05817834  0.75335015  0.60376334     0.78400
C1336       C  0.13298485  0.88731277  0.61071064     0.77360
C1337       C  0.12185986  0.74321670  0.53164986     0.77740
C1338       C  0.12863409  0.60459951  0.60896544     0.78870
C1339       C  0.19998645  0.74778778  0.58386291     0.77920
Zn1340     Zn  0.10833852  0.70248828  0.83035273     1.49720
Zn1341     Zn  0.14454678  0.80280374  0.82910437     1.49360
Zn1342     Zn  0.10508970  0.78771901  0.87344636     1.49110
Zn1343     Zn  0.15510499  0.71686381  0.87115074     1.49480
O1344       O  0.12835767  0.75161593  0.85094365    -1.83350
O1345       O  0.11772582  0.71345452  0.79306230    -0.73980
O1346       O  0.14054221  0.87663914  0.84247016    -0.73800
O1347       O  0.06803704  0.77737147  0.86368209    -0.73310
O1348       O  0.13171284  0.79519601  0.79327941    -0.73990
O1349       O  0.06918254  0.71576055  0.83393051    -0.73590
O1350       O  0.11204723  0.86372696  0.87384103    -0.74180
O1351       O  0.15082325  0.73600672  0.90919947    -0.73570
O1352       O  0.18217708  0.78620550  0.82483780    -0.74320
O1353       O  0.10966003  0.76353284  0.90896057    -0.73710
O1354       O  0.19172360  0.72798528  0.85478422    -0.74180
O1355       O  0.14760252  0.63998161  0.87055012    -0.74090
O1356       O  0.11588722  0.62827106  0.84210476    -0.73880
C1357       C  0.12515269  0.75425444  0.78115721     0.77910
C1358       C  0.12635326  0.89385176  0.86065638     0.78400
C1359       C  0.05644167  0.74750123  0.84794640     0.77360
C1360       C  0.12975722  0.74810124  0.92106889     0.77740
C1361       C  0.19834427  0.75561062  0.83545773     0.78870
C1362       C  0.13168980  0.61010437  0.85879068     0.77920
Zn1363     Zn  0.35876753  0.80610864  0.54540304     1.49720
Zn1364     Zn  0.39407844  0.79214929  0.99746914     1.49360
Zn1365     Zn  0.39331200  0.70561556  0.53985337     1.49110
Zn1366     Zn  0.34451864  0.72136697  0.00218767     1.49480
O1367       O  0.37240671  0.75576091  0.52127891    -1.83350
O1368       O  0.36420351  0.88064971  0.53360835    -0.73980
O1369       O  0.43185044  0.78064969  0.00444670    -0.73800
O1370       O  0.38533270  0.70946926  0.57763295    -0.73310
O1371       O  0.38649284  0.86803107  0.49781094    -0.73990
O1372       O  0.37141191  0.79120173  0.58132906    -0.73590
O1373       O  0.43173047  0.72015169  0.53473865    -0.74180
O1374       O  0.35157397  0.64424951  0.50133287    -0.73570
O1375       O  0.38684861  0.76878603  0.96224518    -0.74320
O1376       O  0.38616978  0.63356699  0.52653541    -0.73710
O1377       O  0.34572610  0.74101243  0.96399740    -0.74180
O1378       O  0.30971815  0.73373819  0.52087295    -0.74090
O1379       O  0.32054068  0.79503701  0.54904292    -0.73880
C1380       C  0.37466801  0.89817555  0.51323231     0.77910
C1381       C  0.44390255  0.75042166  0.51958281     0.78400
C1382       C  0.37785275  0.74775999  0.59127312     0.77360
C1383       C  0.36919889  0.61533808  0.51104762     0.77740
C1384       C  0.36607857  0.75359469  0.95115377     0.78870
C1385       C  0.30393495  0.76356955  0.53970457     0.77920
Zn1386     Zn  0.34382777  0.78020553  0.75056329     1.49720
Zn1387     Zn  0.39035176  0.79369352  0.79193684     1.49360
Zn1388     Zn  0.35341498  0.69426136  0.79284445     1.49110
Zn1389     Zn  0.39430736  0.70895910  0.74879781     1.49480
O1390       O  0.37043191  0.74490127  0.77111960    -1.83350
O1391       O  0.35206290  0.85702048  0.75038574    -0.73980
O1392       O  0.38079800  0.78341234  0.82930271    -0.73800
O1393       O  0.31550163  0.71072576  0.79606124    -0.73310
O1394       O  0.38375862  0.86729053  0.77927654    -0.73990
O1395       O  0.30715819  0.77100950  0.76682598    -0.73590
O1396       O  0.36523758  0.70220551  0.82914813    -0.74180
O1397       O  0.38784887  0.63230473  0.74922717    -0.73570
O1398       O  0.42948360  0.78103837  0.78869447    -0.74320
O1399       O  0.35803657  0.62059713  0.77959508    -0.73710
O1400       O  0.43174506  0.72231839  0.75765806    -0.74180
O1401       O  0.38879090  0.73158227  0.71302904    -0.74090
O1402       O  0.34735694  0.75876744  0.71270870    -0.73880
C1403       C  0.36853999  0.88568398  0.76212045     0.77910
C1404       C  0.37270864  0.74290678  0.84098842     0.78400
C1405       C  0.29982212  0.74250206  0.78554648     0.77360
C1406       C  0.37286395  0.60270870  0.76204636     0.77740
C1407       C  0.44280476  0.75186344  0.77394134     0.78870
C1408       C  0.36848750  0.74637600  0.70105351     0.77920
C1409       C  0.39109317  0.74013159  0.91110895    -0.11490
C1410       C  0.36674330  0.74991878  0.92280103     0.05520
C1411       C  0.34435503  0.75593595  0.90720841    -0.06780
C1412       C  0.34688083  0.75188292  0.88050735    -0.07520
C1413       C  0.37130225  0.74320154  0.86903446    -0.02070
C1414       C  0.39371801  0.73636824  0.88443405     0.04750
N1415       N  0.41900729  0.72487105  0.87355025     0.67250
H1416       H  0.40826100  0.73432801  0.92295862     0.16150
H1417       H  0.32978722  0.75745062  0.86850492     0.15860
N1418       N  0.31932490  0.76869753  0.91788965     0.74960
O1419       O  0.43961729  0.73475806  0.88601384    -0.38490
O1420       O  0.42090577  0.70031703  0.85268087    -0.38440
O1421       O  0.31715660  0.80638848  0.93325527    -0.39140
O1422       O  0.29891182  0.74732108  0.90923128    -0.39210
C1423       C  0.39306520  0.77364410  0.63407097    -0.11490
C1424       C  0.37639726  0.74238689  0.61934253     0.05520
C1425       C  0.35688416  0.71202645  0.63169835    -0.06780
C1426       C  0.35362042  0.71717313  0.65833579    -0.07520
C1427       C  0.37020215  0.74880527  0.67294474    -0.02070
C1428       C  0.39066160  0.77637590  0.66076751     0.04750
N1429       N  0.40896503  0.80763832  0.67506072     0.67250
H1430       H  0.40791131  0.79674945  0.62459940     0.16150
H1431       H  0.33881915  0.69435242  0.66801776     0.15860
N1432       N  0.34007028  0.67649302  0.61793144     0.74960
O1433       O  0.43229756  0.81215114  0.66746126    -0.38490
O1434       O  0.40151511  0.83398735  0.69411552    -0.38440
O1435       O  0.34784847  0.65371109  0.59794202    -0.39140
O1436       O  0.31812064  0.66389597  0.62711425    -0.39210
C1437       C  0.22585920  0.74996989  0.79633718    -0.11490
C1438       C  0.22455786  0.75075671  0.82331654     0.05520
C1439       C  0.24806070  0.75040986  0.83737910    -0.06780
C1440       C  0.27208518  0.74908373  0.82434258    -0.07520
C1441       C  0.27345333  0.74802640  0.79735257    -0.02070
C1442       C  0.24988259  0.74885653  0.78318841     0.04750
N1443       N  0.24971535  0.74653116  0.75571599     0.67250
H1444       H  0.20788814  0.75051910  0.78528374     0.16150
H1445       H  0.28998375  0.74885729  0.83550928     0.15860
N1446       N  0.24801586  0.75446065  0.86471872     0.74960
O1447       O  0.23367595  0.71704877  0.74437525    -0.38490
O1448       O  0.26180726  0.78036641  0.74288194    -0.38440
O1449       O  0.23922951  0.71765302  0.87813742    -0.39140
O1450       O  0.26011126  0.79131868  0.87546423    -0.39210
C1451       C  0.14660274  0.73747353  0.99180899    -0.11490
C1452       C  0.12211592  0.74290732  0.50340586     0.05520
C1453       C  0.09952566  0.74632957  0.98781813    -0.06780
C1454       C  0.10277540  0.74684883  0.96099750    -0.07520
C1455       C  0.12776249  0.74445242  0.94944137    -0.02070
C1456       C  0.14986296  0.73958775  0.96533314     0.04750
N1457       N  0.17583607  0.73888431  0.95518465     0.67250
H1458       H  0.16348249  0.73133547  0.50359094     0.16150
H1459       H  0.08551734  0.74955693  0.94902069     0.15860
N1460       N  0.07340033  0.74630411  0.99833987     0.74960
O1461       O  0.19114549  0.77618514  0.95997471    -0.38490
O1462       O  0.18490390  0.69739588  0.94583067    -0.38440
O1463       O  0.06897561  0.76182504  0.52084908    -0.39140
O1464       O  0.05432382  0.73122205  0.98483119    -0.39210
C1465       C  0.14315853  0.78942753  0.71241665    -0.11490
C1466       C  0.13739982  0.74301801  0.69962902     0.05520
C1467       C  0.12714060  0.70051629  0.71352975    -0.06780
C1468       C  0.12254620  0.70602069  0.73985838    -0.07520
C1469       C  0.12772533  0.75294529  0.75276383    -0.02070
C1470       C  0.13777030  0.79553521  0.73854372     0.04750
N1471       N  0.14143044  0.84595508  0.74977604     0.67250
H1472       H  0.15015311  0.82250599  0.70163518     0.16150
H1473       H  0.11528312  0.67279709  0.75039371     0.15860
N1474       N  0.12164181  0.65142337  0.70133227     0.74960
O1475       O  0.16232801  0.87073734  0.74567729    -0.38490
O1476       O  0.12204123  0.86976014  0.75907262    -0.38440
O1477       O  0.13628342  0.63448716  0.68374701    -0.39140
O1478       O  0.10359505  0.62257707  0.70970905    -0.39210
C1479       C  0.24769447  0.76767302  0.58812692    -0.11490
C1480       C  0.22646213  0.75445563  0.57250222     0.05520
C1481       C  0.23080315  0.74756645  0.54595748    -0.06780
C1482       C  0.25624560  0.74858929  0.53611276    -0.07520
C1483       C  0.27761134  0.76085317  0.55168062    -0.02070
C1484       C  0.27313284  0.77176481  0.57810803     0.04750
N1485       N  0.29396083  0.78566990  0.59530823     0.67250
H1486       H  0.24458204  0.77388815  0.60842355     0.16150
H1487       H  0.25916083  0.74304741  0.51573351     0.15860
N1488       N  0.20944535  0.74593802  0.52832347     0.74960
O1489       O  0.28987835  0.81772531  0.61319732    -0.38490
O1490       O  0.31501582  0.76028738  0.59525643    -0.38440
O1491       O  0.19264262  0.78185943  0.52908735    -0.39140
O1492       O  0.21083409  0.71729566  0.50871009    -0.39210
C1493       C  0.98543501  0.74110748  0.82548463    -0.11490
C1494       C  0.97234157  0.75231912  0.84841245     0.05520
C1495       C  0.98692521  0.76292374  0.87084183    -0.06780
C1496       C  0.01424041  0.76174499  0.86971446    -0.07040
C1497       C  0.02752142  0.74954748  0.84695016    -0.02070
C1498       C  0.01290772  0.73972594  0.82439852     0.04750
N1499       N  0.02541951  0.73060551  0.80017609     0.67250
H1500       H  0.97415013  0.73391487  0.80824449     0.16150
H1501       H  0.02522993  0.76940847  0.88709007     0.15860
N1502       N  0.97460547  0.77696336  0.89463077     0.74960
O1503       O  0.01532742  0.69945694  0.78426632    -0.38490
O1504       O  0.04414746  0.75914924  0.79308248    -0.38440
O1505       O  0.95748575  0.74781822  0.90442774    -0.39140
O1506       O  0.98410314  0.81326792  0.90804217    -0.39210
C1507       C  0.98669948  0.73978079  0.62334026    -0.11490
C1508       C  0.97379683  0.75601700  0.60095064     0.05520
C1509       C  0.98900050  0.77157691  0.57968420    -0.06780
C1510       C  0.01632293  0.77007036  0.58119300    -0.07520
C1511       C  0.02918839  0.75361589  0.60348635    -0.02070
C1512       C  0.01403599  0.73825559  0.62483875     0.04750
N1513       N  0.02587911  0.72226091  0.64841604     0.67250
H1514       H  0.97547759  0.72810045  0.63995973     0.16150
H1515       H  0.02757563  0.78169279  0.56458388     0.15860
N1516       N  0.97729770  0.78740389  0.55606283     0.74960
O1517       O  0.02179521  0.74834996  0.66850697    -0.38490
O1518       O  0.03504230  0.67688626  0.65033966    -0.38440
O1519       O  0.96696350  0.83183133  0.55453512    -0.39140
O1520       O  0.98337517  0.76379434  0.53571481    -0.39210
C1521       C  0.89695633  0.75547824  0.95829663    -0.11490
C1522       C  0.87173070  0.75397121  0.94721462     0.05520
C1523       C  0.84976394  0.75327910  0.96343542    -0.06780
C1524       C  0.85359008  0.75278986  0.98990854    -0.07520
C1525       C  0.87847380  0.75394303  0.50095221    -0.02070
C1526       C  0.90067676  0.75585823  0.98497585     0.04750
N1527       N  0.92686176  0.75636170  0.99517527     0.67250
H1528       H  0.91403101  0.75681467  0.94605029     0.16150
H1529       H  0.83696526  0.74974285  0.50220616     0.15860
N1530       N  0.82358739  0.75067877  0.95360952     0.74960
O1531       O  0.94556713  0.73796401  0.98225707    -0.38490
O1532       O  0.93187324  0.77926403  0.51597500    -0.38440
O1533       O  0.81669998  0.71277462  0.93977227    -0.39140
O1534       O  0.80635331  0.78123901  0.96214349    -0.39210
C1535       C  0.84892237  0.75560345  0.73982188    -0.11490
C1536       C  0.87375291  0.75534195  0.75131513     0.05520
C1537       C  0.89636204  0.75809801  0.73593011    -0.06780
C1538       C  0.89335790  0.75986072  0.70922412    -0.07520
C1539       C  0.86848821  0.75884560  0.69745755    -0.02070
C1540       C  0.84599825  0.75848150  0.71315859     0.04750
N1541       N  0.82014985  0.76038532  0.70256827     0.67250
H1542       H  0.83159247  0.75446370  0.75176347     0.16150
H1543       H  0.91077932  0.76063388  0.69744733     0.15860
N1544       N  0.92233654  0.75711644  0.74679368     0.74960
O1545       O  0.80341182  0.72701877  0.70927057    -0.38490
O1546       O  0.81255745  0.80104729  0.69129807    -0.38440
O1547       O  0.92699543  0.73242617  0.76717051    -0.39140
O1548       O  0.94128446  0.77677230  0.73470686    -0.39210
C1549       C  0.51384070  0.74622593  0.79614728    -0.11490
C1550       C  0.52696762  0.74803412  0.77258485     0.05520
C1551       C  0.51227031  0.75132598  0.74963813    -0.06780
C1552       C  0.48491919  0.75399381  0.75099730    -0.07520
C1553       C  0.47174055  0.75313821  0.77455402    -0.02070
C1554       C  0.48643598  0.74944618  0.79745322     0.04750
N1555       N  0.47404915  0.74716666  0.82204709     0.67250
H1556       H  0.52503274  0.74382561  0.81375609     0.16150
H1557       H  0.47370865  0.75575910  0.73337758     0.15860
N1558       N  0.52457381  0.74974411  0.72485493     0.74960
O1559       O  0.48128810  0.71340377  0.83807182    -0.38490
O1560       O  0.46018224  0.78470452  0.82962197    -0.38440
O1561       O  0.54307877  0.71844346  0.72055881    -0.39140
O1562       O  0.51470664  0.77434957  0.70630253    -0.39210
C1563       C  0.72788681  0.76667548  0.82500149    -0.11490
C1564       C  0.72516357  0.75797623  0.79843004     0.05520
C1565       C  0.74741003  0.74297331  0.78425506    -0.06780
C1566       C  0.77143712  0.73640060  0.79698286    -0.07520
C1567       C  0.77419328  0.74530009  0.82353135    -0.02070
C1568       C  0.75191919  0.76001028  0.83775797     0.04750
N1569       N  0.75291191  0.76586869  0.86513737     0.67250
H1570       H  0.71082125  0.77673347  0.83624785     0.16150
H1571       H  0.78847846  0.72630920  0.78570240     0.15860
N1572       N  0.74638318  0.73658571  0.75692376     0.74960
O1573       O  0.73850895  0.79892024  0.87611401    -0.38490
O1574       O  0.76518866  0.73328807  0.87863220    -0.38440
O1575       O  0.73505984  0.77010942  0.74319582    -0.39140
O1576       O  0.75986956  0.70168957  0.74622554    -0.39210
C1577       C  0.48565172  0.75137922  0.54339605    -0.11490
C1578       C  0.47266001  0.75069186  0.51973377     0.05520
C1579       C  0.48734296  0.74773456  0.99686887    -0.06780
C1580       C  0.51463476  0.74575418  0.99827468    -0.07520
C1581       C  0.52768100  0.74763640  0.52190756    -0.02070
C1582       C  0.51303577  0.74968860  0.54482823     0.04750
N1583       N  0.52541889  0.74741047  0.56955049     0.67250
H1584       H  0.47432145  0.75242471  0.56091599     0.16150
H1585       H  0.52579027  0.74388867  0.98065458     0.15860
N1586       N  0.47502837  0.74441033  0.97219681     0.74960
O1587       O  0.51511620  0.76998213  0.58850484    -0.38490
O1588       O  0.54436039  0.71688257  0.57333098    -0.38440
O1589       O  0.46240942  0.78275293  0.96359405    -0.39140
O1590       O  0.48149220  0.70845376  0.95699353    -0.39210
C1591       C  0.65052337  0.76075581  0.88093213    -0.11490
C1592       C  0.62615602  0.75100506  0.86942172     0.05520
C1593       C  0.60405735  0.74237309  0.88492523    -0.06780
C1594       C  0.60698441  0.74362238  0.91158010    -0.07520
C1595       C  0.63146238  0.75255069  0.92339908    -0.02070
C1596       C  0.65344831  0.76173950  0.90764388     0.04750
N1597       N  0.67880091  0.77209392  0.91817990     0.67250
H1598       H  0.66746149  0.76812377  0.86899415     0.16150
H1599       H  0.58973739  0.73696266  0.92314437     0.15860
N1600       N  0.57839502  0.73459492  0.87420840     0.74960
O1601       O  0.69804859  0.74471849  0.91133131    -0.38490
O1602       O  0.68291039  0.81439783  0.92979130    -0.38440
O1603       O  0.57471113  0.70107687  0.85690656    -0.39140
O1604       O  0.55877030  0.75542207  0.88468596    -0.39210
C1605       C  0.60446074  0.75899854  0.66190777    -0.11490
C1606       C  0.62905652  0.75012402  0.67345384     0.05520
C1607       C  0.65034536  0.73605597  0.65771115    -0.06780
C1608       C  0.64649912  0.73084269  0.63127188    -0.07520
C1609       C  0.62243316  0.74285030  0.61980403    -0.02070
C1610       C  0.60097449  0.75635232  0.63533173     0.04750
N1611       N  0.57532019  0.76467397  0.62482839     0.67250
H1612       H  0.58764027  0.76866826  0.67357125     0.16150
H1613       H  0.66276389  0.71923922  0.61935348     0.15860
N1614       N  0.67612890  0.72905559  0.66791865     0.74960
O1615       O  0.55559690  0.74532118  0.63579460    -0.38490
O1616       O  0.57186229  0.79737544  0.60717766    -0.38440
O1617       O  0.68887969  0.68847899  0.66257445    -0.39140
O1618       O  0.68780295  0.76700095  0.67821078    -0.39210
C1619       C  0.75366554  0.75296625  0.58778743    -0.11490
C1620       C  0.77510966  0.74747131  0.57137798     0.05520
C1621       C  0.77045552  0.74530257  0.54472470    -0.06780
C1622       C  0.74497167  0.74550101  0.53504901    -0.07520
C1623       C  0.72352478  0.74909322  0.55137421    -0.02070
C1624       C  0.72787433  0.75475206  0.57815320     0.04750
N1625       N  0.70673243  0.76467444  0.59565706     0.67250
H1626       H  0.75708641  0.75641902  0.60819717     0.16150
H1627       H  0.74195509  0.74292147  0.51452548     0.15860
N1628       N  0.79142668  0.74774630  0.52695984     0.74960
O1629       O  0.70956667  0.75490399  0.61918047    -0.38490
O1630       O  0.68717573  0.79103106  0.58863487    -0.38440
O1631       O  0.79445177  0.71090506  0.51124419    -0.39140
O1632       O  0.80121944  0.79170883  0.52218089    -0.39210
C1633       C  0.39286790  0.47717003  0.99897199    -0.11490
C1634       C  0.36970915  0.45248381  0.99108898     0.05520
C1635       C  0.34632532  0.48174752  0.98965238    -0.06780
C1636       C  0.34688747  0.53491778  0.99577501    -0.07520
C1637       C  0.37006399  0.55954562  0.50381378    -0.02070
C1638       C  0.39347917  0.53025046  0.50491490     0.04750
N1639       N  0.41826702  0.55396102  0.51064118     0.67250
H1640       H  0.41098968  0.45534947  0.99959692     0.16150
H1641       H  0.32879553  0.55680349  0.99510854     0.15860
N1642       N  0.32169174  0.45794474  0.98334824     0.74960
O1643       O  0.43453449  0.53059186  0.52472667    -0.38490
O1644       O  0.42568363  0.59334208  0.49820793    -0.38440
O1645       O  0.31472930  0.41656642  0.99438229    -0.39140
O1646       O  0.30522154  0.48224453  0.96988655    -0.39210
C1647       C  0.36818761  0.04588638  0.51655118    -0.11490
C1648       C  0.37041484  0.05936656  0.99054067     0.05520
C1649       C  0.37356410  0.01948420  0.97223694    -0.06780
C1650       C  0.37450804  0.96761101  0.98026536    -0.07520
C1651       C  0.37255775  0.95401419  0.50630825    -0.02070
C1652       C  0.36909005  0.99393732  0.52460191     0.04750
N1653       N  0.36713972  0.98292763  0.55140307     0.67250
H1654       H  0.36579101  0.07606832  0.53086704     0.16150
H1655       H  0.37675654  0.93760831  0.96583956     0.15860
N1656       N  0.37478860  0.03048080  0.94539106     0.74960
O1657       O  0.38335189  0.00307528  0.56674666    -0.38490
O1658       O  0.34637677  0.96322471  0.56013559    -0.38440
O1659       O  0.39540082  0.04963106  0.93605367    -0.39140
O1660       O  0.35798507  0.01076469  0.93052728    -0.39210
C1661       C  0.34791668  0.52131798  0.75473977    -0.11490
C1662       C  0.37219859  0.54671366  0.75560370     0.05520
C1663       C  0.39493678  0.51971891  0.74775040    -0.06780
C1664       C  0.39266746  0.46843321  0.73883900    -0.07520
C1665       C  0.36840053  0.44283147  0.73799700    -0.02070
C1666       C  0.34561526  0.47008244  0.74564483     0.04750
N1667       N  0.31997297  0.44755689  0.74313563     0.67250
H1668       H  0.33038676  0.54246996  0.75997292     0.16150
H1669       H  0.41027250  0.44751128  0.73363699     0.15860
N1670       N  0.42053425  0.54275533  0.74974061     0.74960
O1671       O  0.30226382  0.45895682  0.75900699    -0.38490
O1672       O  0.31386860  0.42274300  0.72311144    -0.38440
O1673       O  0.42666630  0.56937679  0.76918688    -0.39140
O1674       O  0.43810417  0.53103620  0.73377709    -0.39210
C1675       C  0.34725998  0.96901364  0.74990151    -0.11490
C1676       C  0.37038415  0.94133955  0.75496197     0.05520
C1677       C  0.39476057  0.96712836  0.75272602    -0.06780
C1678       C  0.39524551  0.02011783  0.74633047    -0.07520
C1679       C  0.37216195  0.04769354  0.74121881    -0.02070
C1680       C  0.34774809  0.02208158  0.74343571     0.04750
N1681       N  0.32338251  0.04961372  0.74059260     0.67250
H1682       H  0.32858390  0.94948934  0.75189167     0.16150
H1683       H  0.41393011  0.03965065  0.74437541     0.15860
N1684       N  0.41915755  0.93978169  0.75539945     0.74960
O1685       O  0.30322364  0.02595500  0.73280959    -0.38490
O1686       O  0.32097626  0.09530775  0.74913767    -0.38440
O1687       O  0.42219325  0.89587511  0.74497878    -0.39140
O1688       O  0.43888427  0.96273060  0.76463118    -0.39210
C1689       C  0.39375928  0.25247154  0.86304757    -0.11490
C1690       C  0.37062478  0.26151739  0.87653592     0.05520
C1691       C  0.34689363  0.26931178  0.86287271    -0.06780
C1692       C  0.34707301  0.26544586  0.83601289    -0.07520
C1693       C  0.37020077  0.25554556  0.82244273    -0.02070
C1694       C  0.39392975  0.25030046  0.83633835     0.04750
N1695       N  0.41856757  0.24401169  0.82376582     0.67250
H1696       H  0.41199413  0.24735022  0.87338862     0.16150
H1697       H  0.32891014  0.27044002  0.82559783     0.15860
N1698       N  0.32238783  0.27954005  0.87554211     0.74960
O1699       O  0.43395364  0.28224111  0.82211320    -0.38490
O1700       O  0.42687663  0.19894045  0.81878613    -0.38440
O1701       O  0.32139851  0.30953354  0.89463375    -0.39140
O1702       O  0.30117083  0.26611489  0.86501290    -0.39210
C1703       C  0.35090186  0.26951601  0.58777652    -0.11490
C1704       C  0.37233531  0.25366438  0.57299160     0.05520
C1705       C  0.39546892  0.23714310  0.58542946    -0.06780
C1706       C  0.39638710  0.23515927  0.61213592    -0.07520
C1707       C  0.37510232  0.25132140  0.62688565    -0.02070
C1708       C  0.35201485  0.26995097  0.61474580     0.04750
N1709       N  0.32979913  0.28968939  0.62899006     0.67250
H1710       H  0.33342131  0.28293570  0.57808686     0.16150
H1711       H  0.41402290  0.22136044  0.62147811     0.15860
N1712       N  0.41802431  0.22100592  0.57128820     0.74960
O1713       O  0.30965991  0.30538038  0.61729026    -0.38490
O1714       O  0.33024438  0.29358513  0.65307921    -0.38440
O1715       O  0.43356369  0.25488095  0.56269725    -0.39140
O1716       O  0.42541056  0.17427974  0.57248479    -0.39210
C1717       C  0.12009170  0.46270552  0.85802413    -0.11490
C1718       C  0.13383353  0.44730811  0.87998985     0.05520
C1719       C  0.14652422  0.48516471  0.89518837    -0.06780
C1720       C  0.14530429  0.53759485  0.88765063    -0.07520
C1721       C  0.13156694  0.55356482  0.86555206    -0.02070
C1722       C  0.11841447  0.51519438  0.85085977     0.04750
N1723       N  0.10298925  0.52838574  0.82888714     0.67250
H1724       H  0.10998633  0.43366274  0.84663226     0.16150
H1725       H  0.15530098  0.56629058  0.89929398     0.15860
N1726       N  0.16048655  0.47156796  0.91826739     0.74960
O1727       O  0.10746333  0.50624140  0.80775649    -0.38490
O1728       O  0.08159389  0.55207568  0.83191375    -0.38440
O1729       O  0.17127275  0.42770600  0.92063212    -0.39140
O1730       O  0.16351139  0.50478746  0.93585979    -0.39210
C1731       C  0.10455428  0.02661030  0.88360413    -0.11490
C1732       C  0.12839025  0.05336287  0.88484484     0.05520
C1733       C  0.15165389  0.02833512  0.87675299    -0.06780
C1734       C  0.15025452  0.97669782  0.86793027    -0.07520
C1735       C  0.12639777  0.94972748  0.86713886    -0.02070
C1736       C  0.10315889  0.97534313  0.87467715     0.04750
N1737       N  0.07791983  0.95093562  0.87225396     0.67250
H1738       H  0.08666572  0.04664183  0.88878111     0.16150
H1739       H  0.16804570  0.95690616  0.86227446     0.15860
N1740       N  0.17650457  0.05477944  0.87636063     0.74960
O1741       O  0.05988574  0.96185472  0.88785351    -0.38490
O1742       O  0.07250109  0.92402102  0.85270332    -0.38440
O1743       O  0.18293952  0.08535846  0.89420820    -0.39140
O1744       O  0.19335138  0.04307837  0.85965955    -0.39210
C1745       C  0.24627944  0.22381357  0.91308059    -0.11490
C1746       C  0.22475292  0.24284810  0.92673327     0.05520
C1747       C  0.22838048  0.25896782  0.95238038    -0.06780
C1748       C  0.25345530  0.26026557  0.96310069    -0.07520
C1749       C  0.27506278  0.24243580  0.94938873    -0.02070
C1750       C  0.27137913  0.22096932  0.92444945     0.04750
N1751       N  0.29206750  0.19377321  0.91104958     0.67250
H1752       H  0.24316100  0.20906350  0.89387517     0.16150
H1753       H  0.25606277  0.27515518  0.98237653     0.15860
N1754       N  0.20667854  0.27292857  0.96810063     0.74960
O1755       O  0.28728620  0.17113502  0.89007311    -0.38490
O1756       O  0.31415231  0.18651591  0.92127825    -0.38440
O1757       O  0.19207813  0.23724631  0.97645592    -0.39140
O1758       O  0.20644362  0.31679791  0.97896226    -0.39210
C1759       C  0.10972214  0.47149479  0.63404079    -0.11490
C1760       C  0.13311843  0.44373340  0.63091452     0.05520
C1761       C  0.15481545  0.46896323  0.61961571    -0.06780
C1762       C  0.15273655  0.52087000  0.61185303    -0.07520
C1763       C  0.12938759  0.54861754  0.61521840    -0.02070
C1764       C  0.10765024  0.52326651  0.62631919     0.04750
N1765       N  0.08302472  0.54896934  0.62917421     0.67250
H1766       H  0.09265529  0.45268104  0.64211947     0.16150
H1767       H  0.16973064  0.53992875  0.60376773     0.15860
N1768       N  0.17938889  0.44317386  0.61671353     0.74960
O1769       O  0.06525021  0.54159362  0.61276595    -0.38490
O1770       O  0.07747816  0.57082857  0.65012521    -0.38440
O1771       O  0.18465380  0.42039961  0.59593453    -0.39140
O1772       O  0.19733975  0.45101966  0.63288173    -0.39210
C1773       C  0.14469506  0.01785958  0.64429682    -0.11490
C1774       C  0.12832198  0.05105835  0.63024755     0.05520
C1775       C  0.11381358  0.02979897  0.60949384    -0.06780
C1776       C  0.11565485  0.97671997  0.60379113    -0.07520
C1777       C  0.13192939  0.94344785  0.61789242    -0.02070
C1778       C  0.14652933  0.96469407  0.63859958     0.04750
N1779       N  0.16255684  0.93298245  0.65479384     0.67250
H1780       H  0.15586494  0.03297292  0.66031822     0.16150
H1781       H  0.10441177  0.96167681  0.58780129     0.15860
N1782       N  0.09735157  0.06123447  0.59360098     0.74960
O1783       O  0.18593394  0.94614537  0.65919921    -0.38490
O1784       O  0.15195581  0.89911846  0.66881974    -0.38440
O1785       O  0.10759040  0.09271046  0.57803334    -0.39140
O1786       O  0.07344796  0.04982992  0.59122174    -0.39210
C1787       C  0.10863170  0.26580383  0.78754009    -0.11490
C1788       C  0.13270852  0.25274998  0.79896773     0.05520
C1789       C  0.15425023  0.24052977  0.78314797    -0.06780
C1790       C  0.15107402  0.24188839  0.75643071    -0.07520
C1791       C  0.12692500  0.25448093  0.74513488    -0.02070
C1792       C  0.10541720  0.26702769  0.76089569     0.04750
N1793       N  0.07992969  0.27810025  0.75051433     0.67250
H1794       H  0.09201655  0.27534421  0.79953185     0.16150
H1795       H  0.16743179  0.23146380  0.74427539     0.15860
N1796       N  0.17881662  0.22361044  0.79363736     0.74960
O1797       O  0.05976534  0.26086659  0.76156953    -0.38490
O1798       O  0.07720003  0.31122592  0.73293129    -0.38440
O1799       O  0.17932510  0.18959826  0.81102746    -0.39140
O1800       O  0.19996266  0.23633672  0.78287325    -0.39210
C1801       C  0.14402665  0.28039298  0.50654857    -0.11490
C1802       C  0.12087292  0.26325637  0.99496324     0.05520
C1803       C  0.09986723  0.24615050  0.51033877    -0.06780
C1804       C  0.10353094  0.24416284  0.53702715    -0.07520
C1805       C  0.12756758  0.25787248  0.54865708    -0.02070
C1806       C  0.14788710  0.27678313  0.53298125     0.04750
N1807       N  0.17278118  0.29119007  0.54330920     0.67250
H1808       H  0.15944352  0.29619310  0.99482626     0.16150
H1809       H  0.08751470  0.23046800  0.54876411     0.15860
N1810       N  0.07480849  0.23152868  0.99962133     0.74960
O1811       O  0.19269517  0.26416282  0.53816588    -0.38490
O1812       O  0.17559533  0.33487621  0.55398276    -0.38440
O1813       O  0.07249443  0.21839322  0.97642707    -0.39140
O1814       O  0.05464203  0.23132555  0.51356052    -0.39210
C1815       C  0.25561926  0.26494338  0.70847750    -0.11490
C1816       C  0.27595240  0.23860635  0.69581787     0.05520
C1817       C  0.27053917  0.21638975  0.67132436    -0.06780
C1818       C  0.24572822  0.22222183  0.66020235    -0.07520
C1819       C  0.22548795  0.24732210  0.67313692    -0.02070
C1820       C  0.23035369  0.26911832  0.69769904     0.04750
N1821       N  0.21014620  0.29576546  0.71188068     0.67250
H1822       H  0.25944142  0.28250451  0.72697240     0.16150
H1823       H  0.24178240  0.20420921  0.64180685     0.15860
N1824       N  0.28946038  0.18602442  0.65764979     0.74960
O1825       O  0.21233371  0.30193936  0.73578437    -0.38490
O1826       O  0.19115174  0.31699695  0.70050294    -0.38440
O1827       O  0.29635105  0.14251518  0.66652442    -0.39140
O1828       O  0.29381708  0.19573187  0.63435814    -0.39210
C1829       C  0.89299173  0.47611181  0.88587466    -0.11490
C1830       C  0.87074119  0.44629783  0.88066385     0.05520
C1831       C  0.84999079  0.46792312  0.86614903    -0.06780
C1832       C  0.85209351  0.51975227  0.85773950    -0.07520
C1833       C  0.87425666  0.55002833  0.86337148    -0.02070
C1834       C  0.89521681  0.52732930  0.87720901     0.04750
N1835       N  0.91932655  0.55471709  0.88170237     0.67250
H1836       H  0.90926618  0.45859688  0.89602829     0.16150
H1837       H  0.83597893  0.53707833  0.84730958     0.15860
N1838       N  0.82712278  0.43807537  0.85924066     0.74960
O1839       O  0.93141602  0.54895199  0.90261087    -0.38490
O1840       O  0.93046715  0.57836720  0.86357057    -0.38440
O1841       O  0.81890800  0.40191197  0.87341347    -0.39140
O1842       O  0.81387237  0.45027296  0.83972545    -0.39210
C1843       C  0.89136370  0.02663691  0.87816919    -0.11490
C1844       C  0.86732123  0.05217283  0.88153532     0.05520
C1845       C  0.84393921  0.02410941  0.87738602    -0.06780
C1846       C  0.84500351  0.97170168  0.87011739    -0.07520
C1847       C  0.86899073  0.94631828  0.86622489    -0.02070
C1848       C  0.89254705  0.97407374  0.87065930     0.04750
N1849       N  0.91768038  0.94926106  0.86881838     0.67250
H1850       H  0.90940440  0.04775761  0.88150103     0.16150
H1851       H  0.82682251  0.95080871  0.86714908     0.15860
N1852       N  0.81890440  0.04767326  0.88124304     0.74960
O1853       O  0.93713993  0.97437164  0.86056216    -0.38490
O1854       O  0.92136903  0.90526205  0.87886745    -0.38440
O1855       O  0.80906883  0.07536355  0.86378557    -0.39140
O1856       O  0.80455856  0.03216820  0.89933219    -0.39210
C1857       C  0.98526176  0.24024014  0.87634407    -0.11490
C1858       C  0.97235744  0.24539020  0.89990762     0.05520
C1859       C  0.98717834  0.25588930  0.92226051    -0.06780
C1860       C  0.01451580  0.26082338  0.92029086    -0.07520
C1861       C  0.02741954  0.25481454  0.89674534    -0.02070
C1862       C  0.01250765  0.24506974  0.87436945     0.04750
N1863       N  0.02439889  0.24245198  0.84941808     0.67250
H1864       H  0.97384152  0.23373067  0.85911421     0.16150
H1865       H  0.02589788  0.26815350  0.93745430     0.15860
N1866       N  0.97502172  0.26376363  0.94677753     0.74960
O1867       O  0.01479716  0.21324086  0.83236001    -0.38490
O1868       O  0.04199980  0.27448643  0.84321267    -0.38440
O1869       O  0.95812598  0.23209892  0.95490538    -0.39140
O1870       O  0.98408469  0.29747918  0.96199786    -0.39210
C1871       C  0.89310385  0.52850828  0.62902876    -0.11490
C1872       C  0.87269490  0.54970896  0.61422591     0.05520
C1873       C  0.85101150  0.51773887  0.60824033    -0.06780
C1874       C  0.85023249  0.46631008  0.61718378    -0.07520
C1875       C  0.87068305  0.44501493  0.63194439    -0.02070
C1876       C  0.89230867  0.47715557  0.63803303     0.04750
N1877       N  0.91382660  0.45857894  0.65304460     0.67250
H1878       H  0.90986185  0.55230906  0.63401960     0.16150
H1879       H  0.83341721  0.44264249  0.61224013     0.15860
N1880       N  0.82924270  0.53686878  0.59375748     0.74960
O1881       O  0.93676650  0.46161633  0.64425984    -0.38490
O1882       O  0.91065404  0.45014277  0.67664031    -0.38440
O1883       O  0.83189958  0.54562284  0.57013117    -0.39140
O1884       O  0.80650295  0.53412145  0.60304786    -0.39210
C1885       C  0.84758472  0.02694125  0.62371859    -0.11490
C1886       C  0.87155692  0.04844818  0.63145926     0.05520
C1887       C  0.89454952  0.01803386  0.63029284    -0.06780
C1888       C  0.89298625  0.96710993  0.62073366    -0.07520
C1889       C  0.86904564  0.94553006  0.61292023    -0.02070
C1890       C  0.84602572  0.97595777  0.61412003     0.04750
N1891       N  0.82135731  0.95683057  0.60458256     0.67250
H1892       H  0.83018635  0.05099351  0.62398641     0.16150
H1893       H  0.91042630  0.94317526  0.62048187     0.15860
N1894       N  0.91927093  0.03730761  0.63966634     0.74960
O1895       O  0.80015507  0.97460599  0.61333861    -0.38490
O1896       O  0.82059639  0.92723094  0.58527718    -0.38440
O1897       O  0.92011758  0.06791375  0.65858448    -0.39140
O1898       O  0.94043923  0.01905997  0.63106810    -0.39210
C1899       C  0.98573678  0.25268678  0.62618996    -0.11490
C1900       C  0.97231974  0.25437273  0.64959925     0.05520
C1901       C  0.98672316  0.25866290  0.67269387    -0.06780
C1902       C  0.01416581  0.26227586  0.67161193    -0.07520
C1903       C  0.02751727  0.25994666  0.64817833    -0.02070
C1904       C  0.01307008  0.25602229  0.62509147     0.04750
N1905       N  0.02563347  0.25745325  0.60041968     0.67250
H1906       H  0.97472646  0.25053512  0.60846004     0.16150
H1907       H  0.02529038  0.26419379  0.68927529     0.15860
N1908       N  0.97412269  0.25620544  0.69728683     0.74960
O1909       O  0.01583769  0.23309006  0.58170027    -0.38490
O1910       O  0.04435874  0.28840169  0.59638622    -0.38440
O1911       O  0.95565063  0.22452659  0.70105418    -0.39140
O1912       O  0.98386228  0.27991827  0.71622764    -0.39210
C1913       C  0.89539163  0.24140549  0.75869332    -0.11490
C1914       C  0.87216431  0.24169968  0.74456833     0.05520
C1915       C  0.84785640  0.24242748  0.75749484    -0.06780
C1916       C  0.84745560  0.24360102  0.78435861    -0.07520
C1917       C  0.87069558  0.24348468  0.79867209    -0.02070
C1918       C  0.89496685  0.24193726  0.78547794     0.04750
N1919       N  0.91940829  0.23972615  0.79883772     0.67250
H1920       H  0.91404293  0.24054948  0.74883522     0.16150
H1921       H  0.82877207  0.24477557  0.79410927     0.15860
N1922       N  0.82345960  0.24348918  0.74380772     0.74960
O1923       O  0.93233126  0.19794597  0.79884722    -0.38490
O1924       O  0.93043603  0.28138824  0.80572508    -0.38440
O1925       O  0.81893372  0.21062892  0.72640512    -0.39140
O1926       O  0.80488503  0.27132968  0.75189197    -0.39210
C1927       C  0.85122002  0.22829957  0.50600670    -0.11490
C1928       C  0.87378253  0.24936532  0.99479829     0.05520
C1929       C  0.89387815  0.26987276  0.51045012    -0.06780
C1930       C  0.89078252  0.26785226  0.53712123    -0.07520
C1931       C  0.86819878  0.24688720  0.54846039    -0.02070
C1932       C  0.84816515  0.22629600  0.53272954     0.04750
N1933       N  0.82541054  0.20121423  0.54329404     0.67250
H1934       H  0.83604676  0.21239455  0.99374136     0.16150
H1935       H  0.90603930  0.28364175  0.54930492     0.15860
N1936       N  0.91745150  0.29220009  0.99992974     0.74960
O1937       O  0.80426115  0.20024890  0.53077080    -0.38490
O1938       O  0.82721396  0.17408374  0.56334025    -0.38440
O1939       O  0.91752344  0.31303248  0.97806687    -0.39140
O1940       O  0.93800772  0.29462069  0.51334890    -0.39210
C1941       C  0.63944634  0.45655748  0.51407434    -0.11490
C1942       C  0.63088662  0.44130286  0.98955936     0.05520
C1943       C  0.62216722  0.47995490  0.97237275    -0.06780
C1944       C  0.62219927  0.53219999  0.98000218    -0.07520
C1945       C  0.63043682  0.54748444  0.50465010    -0.02070
C1946       C  0.63941424  0.50881873  0.52174609     0.04750
N1947       N  0.64801927  0.52136065  0.54712425     0.67250
H1948       H  0.64610952  0.42752159  0.52760603     0.16150
H1949       H  0.61546583  0.56106078  0.96641794     0.15860
N1950       N  0.61374408  0.46737515  0.94693908     0.74960
O1951       O  0.63671267  0.50098861  0.56609095    -0.38490
O1952       O  0.66990263  0.54319680  0.55033852    -0.38440
O1953       O  0.59139038  0.44766290  0.94352042    -0.39140
O1954       O  0.62563371  0.48680580  0.92807382    -0.39210
C1955       C  0.65086532  0.02278688  0.99396965    -0.11490
C1956       C  0.62635304  0.04689084  0.99192801     0.05520
C1957       C  0.60356049  0.01888443  0.99869195    -0.06780
C1958       C  0.60600107  0.96768501  0.50765871    -0.07520
C1959       C  0.63050206  0.94331314  0.50955172    -0.02070
C1960       C  0.65332491  0.97166973  0.50309095     0.04750
N1961       N  0.67906846  0.95029485  0.50679741     0.67250
H1962       H  0.66835037  0.04486067  0.98956063     0.16150
H1963       H  0.58845397  0.94575077  0.51198297     0.15860
N1964       N  0.57783216  0.04073216  0.99543885     0.74960
O1965       O  0.69768019  0.96407297  0.99245707    -0.38490
O1966       O  0.68410356  0.92358121  0.52645879    -0.38440
O1967       O  0.57270345  0.06880981  0.97626752    -0.39140
O1968       O  0.55934600  0.02679541  0.50989332    -0.39210
C1969       C  0.51373865  0.25826026  0.94856521    -0.11490
C1970       C  0.52665882  0.25133333  0.97208955     0.05520
C1971       C  0.51165455  0.24262078  0.49444042    -0.06780
C1972       C  0.48439271  0.23970128  0.49255557    -0.07520
C1973       C  0.47144627  0.24610122  0.96908879    -0.02070
C1974       C  0.48628721  0.25540527  0.94668354     0.04750
N1975       N  0.47408007  0.26422857  0.92224221     0.67250
H1976       H  0.52513461  0.26485359  0.93139475     0.16150
H1977       H  0.47302815  0.23392825  0.50984048     0.15860
N1978       N  0.52353362  0.23938683  0.51936855     0.74960
O1979       O  0.48361208  0.29734304  0.90706952    -0.38490
O1980       O  0.45648440  0.23394585  0.91414076    -0.38440
O1981       O  0.53997383  0.27321127  0.52638085    -0.39140
O1982       O  0.51476138  0.20776168  0.53570834    -0.39210
C1983       C  0.72665753  0.24165292  0.92081186    -0.11490
C1984       C  0.72446521  0.24247822  0.94772736     0.05520
C1985       C  0.74738634  0.24833885  0.96258838    -0.06780
C1986       C  0.77164201  0.25367783  0.95014762    -0.07520
C1987       C  0.77387626  0.25246076  0.92322922    -0.02070
C1988       C  0.75092140  0.24714735  0.90833806     0.04750
N1989       N  0.75155836  0.25008011  0.88081394     0.67250
H1990       H  0.70906754  0.23889381  0.90930818     0.16150
H1991       H  0.78919080  0.25688650  0.96172726     0.15860
N1992       N  0.74669605  0.24653564  0.99011945     0.74960
O1993       O  0.73450801  0.22657665  0.86763546    -0.38490
O1994       O  0.76663376  0.28182865  0.86979515    -0.38440
O1995       O  0.73218481  0.21419126  0.50143201    -0.39140
O1996       O  0.76307877  0.27226643  0.50310129    -0.39210
C1997       C  0.65138960  0.47632178  0.74566316    -0.11490
C1998       C  0.62707282  0.45449847  0.73932453     0.05520
C1999       C  0.60428931  0.48559177  0.74081675    -0.06780
C2000       C  0.60652571  0.53759760  0.74875197    -0.07520
C2001       C  0.63084191  0.55936899  0.75524831    -0.02070
C2002       C  0.65356563  0.52828924  0.75352859     0.04750
N2003       N  0.67874538  0.54774785  0.76095652     0.67250
H2004       H  0.66885043  0.45246715  0.74488275     0.16150
H2005       H  0.58908379  0.56147552  0.74963608     0.15860
N2006       N  0.57903956  0.46628223  0.73320557     0.74960
O2007       O  0.69185567  0.52372164  0.77766945    -0.38490
O2008       O  0.69001370  0.58145210  0.74734093    -0.38440
O2009       O  0.56999160  0.42511773  0.74285418    -0.39140
O2010       O  0.56410651  0.49450294  0.71989039    -0.39210
C2011       C  0.65080544  0.98147305  0.76127786    -0.11490
C2012       C  0.62707835  0.95499094  0.75759489     0.05520
C2013       C  0.60610363  0.98096154  0.74534438    -0.06780
C2014       C  0.60959991  0.03208808  0.73674401    -0.07520
C2015       C  0.63332103  0.05873235  0.74038507    -0.02070
C2016       C  0.65437535  0.03255084  0.75248332     0.04750
N2017       N  0.67979778  0.05595459  0.75491675     0.67250
H2018       H  0.66720650  0.96131843  0.76989944     0.16150
H2019       H  0.59313453  0.05195530  0.72808840     0.15860
N2020       N  0.58084804  0.95700239  0.74235661     0.74960
O2021       O  0.69343309  0.04782728  0.77469091    -0.38490
O2022       O  0.69030410  0.07750229  0.73581186    -0.38440
O2023       O  0.57051818  0.93302618  0.76084064    -0.39140
O2024       O  0.56734071  0.96574592  0.72256204    -0.39210
C2025       C  0.48752803  0.24258963  0.74664526    -0.11490
C2026       C  0.47429885  0.25161706  0.72346076     0.05520
C2027       C  0.48903292  0.25735917  0.70073319    -0.06780
C2028       C  0.51638523  0.25296652  0.70167562    -0.07520
C2029       C  0.52950737  0.24490214  0.72492908    -0.02070
C2030       C  0.51490526  0.23927025  0.74775839     0.04750
N2031       N  0.52734471  0.22863806  0.77198351     0.67250
H2032       H  0.47637129  0.23758322  0.76410062     0.16150
H2033       H  0.52755876  0.25784472  0.68421675     0.15860
N2034       N  0.47671250  0.26676485  0.67652033     0.74960
O2035       O  0.51679379  0.24340793  0.79259879    -0.38490
O2036       O  0.54715664  0.19943945  0.77312593    -0.38440
O2037       O  0.46583142  0.30998850  0.67243172    -0.39140
O2038       O  0.48185538  0.23755651  0.65774925    -0.39210
C2039       C  0.64577981  0.21363483  0.83660169    -0.11490
C2040       C  0.63497385  0.25625099  0.82373902     0.05520
C2041       C  0.62131893  0.29458426  0.83783396    -0.06780
C2042       C  0.61806951  0.28837976  0.86425992    -0.07520
C2043       C  0.62861845  0.24548534  0.87727521    -0.02070
C2044       C  0.64297292  0.20792377  0.86315315     0.04750
N2045       N  0.65520690  0.16426069  0.87528329     0.67250
H2046       H  0.65618041  0.18406723  0.82587453     0.16150
H2047       H  0.60746941  0.31796256  0.87476588     0.15860
N2048       N  0.61114376  0.34054884  0.82575973     0.74960
O2049       O  0.65179668  0.11917111  0.86630126    -0.38490
O2050       O  0.67301409  0.17159379  0.89166640    -0.38440
O2051       O  0.58964722  0.35963901  0.83303140    -0.39140
O2052       O  0.62494130  0.36546881  0.80993545    -0.39210
C2053       C  0.60865397  0.27691880  0.61295834    -0.11490
C2054       C  0.62742851  0.24932122  0.62690815     0.05520
C2055       C  0.64751149  0.22260227  0.61381177    -0.06780
C2056       C  0.64927241  0.22673300  0.58710960    -0.07520
C2057       C  0.63034623  0.25376527  0.57307039    -0.02070
C2058       C  0.60945204  0.27856533  0.58610002     0.04750
N2059       N  0.58913104  0.30586678  0.57255692     0.67250
H2060       H  0.59330406  0.29742761  0.62309293     0.16150
H2061       H  0.66457165  0.20589224  0.57706381     0.15860
N2062       N  0.66554095  0.18951328  0.62710324     0.74960
O2063       O  0.56617821  0.30705394  0.58145375    -0.38490
O2064       O  0.59442661  0.33268355  0.55301509    -0.38440
O2065       O  0.65688897  0.15532352  0.64218360    -0.39140
O2066       O  0.68901970  0.18670030  0.61976070    -0.39210
C2067       C  0.74589477  0.29587127  0.70460941    -0.11490
C2068       C  0.72705765  0.25749228  0.69971137     0.05520
C2069       C  0.73257281  0.21732109  0.68184257    -0.06780
C2070       C  0.75687827  0.21747479  0.66929122    -0.07520
C2071       C  0.77567531  0.25588643  0.67400165    -0.02070
C2072       C  0.77056049  0.29527722  0.69250191     0.04750
N2073       N  0.78989326  0.33383730  0.69983119     0.67250
H2074       H  0.74126199  0.32626489  0.71825165     0.16150
H2075       H  0.76141413  0.18696952  0.65566736     0.15860
N2076       N  0.71408447  0.17629748  0.67599990     0.74960
O2077       O  0.78403218  0.36932981  0.71554700    -0.38490
O2078       O  0.81319114  0.33153757  0.69195076    -0.38440
O2079       O  0.69033641  0.17957763  0.68232421    -0.39140
O2080       O  0.72140910  0.13648196  0.66379056    -0.39210
loop_ 
_geom_bond_atom_site_label_1 
_geom_bond_atom_site_label_2 
_geom_bond_distance 
_geom_bond_site_symmetry_2 
_ccdc_geom_bond_type 
Zn1           O5   1.944       .  S
Zn1           O6   2.003       .  S
Zn1          O10   2.038       .  S
Zn1          O17   2.025       .  S
Zn2           O5   1.957       .  S
Zn2           O7   2.039       .  S
Zn2           O9   2.048       .  S
Zn2          O13   2.012       .  S
Zn3           O5   1.928       .  S
Zn3           O8   1.995       .  S
Zn3          O11   1.975       .  S
Zn3          O14   1.997       .  S
Zn4           O5   1.949       .  S
Zn4          O12   2.033       .  S
Zn4          O15   2.023       .  S
Zn4          O16   2.019       .  S
O6           C18   1.271       .  A
O7           C19   1.278       .  A
O8           C20   1.270       .  A
O9           C18   1.278       .  A
O10          C20   1.276       .  A
O11          C19   1.270       .  A
O12          C21   1.275       .  A
O13          C22   1.273       .  A
O14          C21   1.271       .  A
O15          C22   1.276       .  A
O16          C23   1.274       .  A
O17          C23   1.276       .  A
C18        C1028   1.474       .  S
C19        C1000   1.475       .  S
C20         C958   1.475       .  S
C21         C989   1.474       .  S
C22         C975   1.487       .  S
C23        C1014   1.471       .  S
Zn24         O28   1.947       .  S
Zn24         O33   2.012       .  S
Zn24         O40   2.067       .  S
Zn24       O1069   2.046       .  S
Zn25       O1068   1.918       .  S
Zn25         O32   1.987   1_556  S
Zn25       O1070   1.993       .  S
Zn25       O1076   2.003       .  S
Zn26         O28   1.938       .  S
Zn26         O31   2.028       .  S
Zn26         O34   2.040       .  S
Zn26         O37   2.017       .  S
Zn27         O28   1.931       .  S
Zn27         O35   2.005       .  S
Zn27         O38   2.029       .  S
Zn27         O39   2.000       .  S
O28       Zn1065   1.918       .  S
O29       Zn1064   2.046   1_554  S
O29          C41   1.280       .  A
O30       Zn1065   1.993       .  S
O30          C42   1.271       .  A
O31          C43   1.275       .  A
O32          C41   1.271       .  A
O33          C43   1.274       .  A
O34          C42   1.276       .  A
O35          C44   1.274       .  A
O36       Zn1065   2.003       .  S
O36          C45   1.272       .  A
O37          C44   1.277       .  A
O38          C45   1.275       .  A
O39          C46   1.271       .  A
O40          C46   1.280       .  A
C41        C1017   1.472       .  S
C42         C930   1.482       .  S
C43         C902   1.486       .  S
C44        C1003   1.485       .  S
C45         C916   1.477       .  S
C46         C944   1.490       .  S
Zn47         O51   1.923       .  S
Zn47         O52   1.983       .  S
Zn47         O56   2.005       .  S
Zn47         O63   1.999       .  S
Zn48         O51   1.951       .  S
Zn48         O53   2.053       .  S
Zn48         O55   2.052       .  S
Zn48         O59   2.008       .  S
Zn49         O51   1.933       .  S
Zn49         O54   2.022       .  S
Zn49         O57   1.986       .  S
Zn49         O60   2.000       .  S
Zn50         O51   1.945       .  S
Zn50         O58   2.036       .  S
Zn50         O61   2.045       .  S
Zn50         O62   2.033       .  S
O52          C64   1.272       .  A
O53          C65   1.278       .  A
O54          C66   1.273       .  A
O55          C64   1.280       .  A
O56          C66   1.272       .  A
O57          C65   1.268       .  A
O58          C67   1.278       .  A
O59          C68   1.273       .  A
O60          C67   1.273       .  A
O61          C68   1.277       .  A
O62          C69   1.275       .  A
O63          C69   1.272       .  A
C64         C891   1.475       .  S
C65        C1031   1.474       .  S
C66         C846   1.473       .  S
C67         C874   1.469       .  S
C68         C835   1.495       .  S
C69         C860   1.480       .  S
Zn70         O74   1.953       .  S
Zn70         O75   2.075       .  S
Zn70         O79   2.015       .  S
Zn70         O86   2.057       .  S
Zn71         O74   1.933       .  S
Zn71         O76   1.996       .  S
Zn71         O78   1.989       .  S
Zn71         O82   2.028       .  S
Zn72         O74   1.947       .  S
Zn72         O77   2.044       .  S
Zn72         O80   2.035       .  S
Zn72         O83   2.041       .  S
Zn73         O74   1.920       .  S
Zn73         O81   1.998       .  S
Zn73         O84   1.995       .  S
Zn73         O85   1.971       .  S
O75          C87   1.281       .  A
O76          C88   1.274       .  A
O77          C89   1.278       .  A
O78          C87   1.270       .  A
O79          C89   1.273       .  A
O80          C88   1.278       .  A
O81          C90   1.271       .  A
O82          C91   1.274       .  A
O83          C90   1.275       .  A
O84          C91   1.270       .  A
O85          C92   1.269       .  A
O86          C92   1.282       .  A
C87         C947   1.490       .  S
C88         C888   1.466       .  S
C89         C804   1.486       .  S
C90         C818   1.478       .  S
C91         C790   1.468       .  S
C92         C877   1.486       .  S
Zn93         O97   1.937       .  S
Zn93         O98   2.037       .  S
Zn93        O102   2.017       .  S
Zn93        O109   2.018       .  S
Zn94         O97   1.914       .  S
Zn94         O99   1.974       .  S
Zn94        O101   1.990       .  S
Zn94        O105   1.986       .  S
Zn95         O97   1.954       .  S
Zn95        O100   1.999       .  S
Zn95        O103   2.051       .  S
Zn95        O106   2.059       .  S
Zn96         O97   1.931       .  S
Zn96        O104   1.999       .  S
Zn96        O107   2.046       .  S
Zn96        O108   2.011       .  S
O98         C110   1.275       .  A
O99         C111   1.270       .  A
O100        C112   1.271       .  A
O101        C110   1.270       .  A
O102        C112   1.276       .  A
O103        C111   1.280       .  A
O104        C113   1.270       .  A
O105        C114   1.269       .  A
O106        C113   1.279       .  A
O107        C114   1.279       .  A
O108        C115   1.276       .  A
O109        C115   1.275       .  A
C110        C863   1.478       .  S
C111        C765   1.490       .  S
C112        C720   1.481       .  S
C113        C779   1.478       .  S
C114        C734   1.492       .  S
C115        C751   1.473       .  S
Zn116       O120   1.920       .  S
Zn116       O121   2.000       .  S
Zn116       O125   1.992       .  S
Zn116       O132   1.973       .  S
Zn117       O120   1.948       .  S
Zn117       O122   2.025       .  S
Zn117       O124   2.035       .  S
Zn117       O128   2.028       .  S
Zn118       O120   1.934       .  S
Zn118       O123   2.030       .  S
Zn118       O126   2.008       .  S
Zn118       O129   1.988       .  S
Zn119       O120   1.961       .  S
Zn119       O127   2.081       .  S
Zn119       O130   2.029       .  S
Zn119       O131   2.059       .  S
O121        C133   1.272       .  A
O122        C134   1.275       .  A
O123        C135   1.274       .  A
O124        C133   1.275       .  A
O125        C135   1.270       .  A
O126        C134   1.275       .  A
O127        C136   1.282       .  A
O128        C137   1.275       .  A
O129        C136   1.269       .  A
O130        C137   1.275       .  A
O131        C138   1.280       .  A
O132        C138   1.271       .  A
C133        C821   1.481       .  S
C134        C762   1.467       .  S
C135        C692   1.471       .  S
C136        C706   1.484       .  S
C137        C678   1.474       .  S
C138        C748   1.481       .  S
Zn139       O143   1.923       .  S
Zn139       O144   2.001       .  S
Zn139       O148   2.006       .  S
Zn139       O155   1.972       .  S
Zn140       O143   1.940       .  S
Zn140       O145   2.012       .  S
Zn140       O147   2.032       .  S
Zn140       O151   2.023       .  S
Zn141       O143   1.928       .  S
Zn141       O146   2.037       .  S
Zn141       O149   2.011       .  S
Zn141       O152   1.983       .  S
Zn142       O143   1.960       .  S
Zn142       O150   2.078       .  S
Zn142       O153   2.015       .  S
Zn142       O154   2.051       .  S
O144        C156   1.272       .  A
O145        C157   1.275       .  A
O146        C158   1.276       .  A
O147        C156   1.274       .  A
O148        C158   1.272       .  A
O149        C157   1.275       .  A
O150        C159   1.282       .  A
O151        C160   1.276       .  A
O152        C159   1.267       .  A
O153        C160   1.274       .  A
O154        C161   1.281       .  A
O155        C161   1.269       .  A
C156        C986   1.483       .  S
C157        C667   1.464       .  S
C158        C639   1.479       .  S
C159        C776   1.501       .  S
C160        C625   1.484       .  S
C161        C653   1.487       .  S
Zn162      O1206   1.913       .  S
Zn162       O178   1.985   1_556  S
Zn162      O1207   2.000       .  S
Zn162      O1211   1.996       .  S
Zn163       O166   1.923       .  S
Zn163       O168   1.995       .  S
Zn163       O170   2.023       .  S
Zn163       O174   1.991       .  S
Zn164       O166   1.938       .  S
Zn164       O169   2.036       .  S
Zn164       O172   2.034       .  S
Zn164       O175   2.033       .  S
Zn165       O166   1.944       .  S
Zn165       O173   2.002       .  S
Zn165       O176   2.053       .  S
Zn165      O1217   2.045       .  S
O166      Zn1202   1.913       .  S
O167      Zn1202   2.000       .  S
O167        C179   1.273       .  A
O168        C180   1.272       .  A
O169        C181   1.275       .  A
O170        C179   1.275       .  A
O171      Zn1202   1.996       .  S
O171        C181   1.272       .  A
O172        C180   1.278       .  A
O173        C182   1.273       .  A
O174        C183   1.270       .  A
O175        C182   1.276       .  A
O176        C183   1.278       .  A
O177      Zn1205   2.045   1_554  S
O177        C184   1.280       .  A
O178        C184   1.270       .  A
C179        C594   1.481       .  S
C180        C650   1.471       .  S
C181        C933   1.476       .  S
C182        C608   1.482       .  S
C183        C709   1.475       .  S
C184        C664   1.479       .  S
Zn185       O189   1.937       .  S
Zn185       O190   2.030       .  S
Zn185       O194   2.020       .  S
Zn185       O201   2.020       .  S
Zn186      O1229   1.949       .  S
Zn186       O197   2.060       .  S
Zn186      O1231   2.052       .  S
Zn186      O1233   2.014       .  S
Zn187       O189   1.932       .  S
Zn187       O192   1.999       .  S
Zn187       O195   1.994       .  S
Zn187       O198   2.031       .  S
Zn188      O1229   1.913       .  S
Zn188       O199   1.967       .  S
Zn188       O200   1.989       .  S
Zn188      O1236   1.996       .  S
O189      Zn1226   1.949       .  S
O189      Zn1228   1.913   1_554  S
O190        C202   1.276       .  A
O191      Zn1226   2.052       .  S
O191        C203   1.280       .  A
O192        C204   1.273       .  A
O193      Zn1226   2.014       .  S
O193        C202   1.274       .  A
O194        C204   1.276       .  A
O195        C203   1.271       .  A
O196      Zn1228   1.996       .  S
O196        C205   1.272   1_556  A
O197        C206   1.279       .  A
O198        C205   1.274       .  A
O199        C206   1.270       .  A
O200       C1247   1.271       .  A
O201        C207   1.274       .  A
C202        C919   1.483       .  S
C203        C583   1.479       .  S
C204        C569   1.470       .  S
C205        C905   1.489       .  S
C206        C555   1.491       .  S
C207       O1240   1.271       .  A
C207        C541   1.471       .  S
Zn208       O212   1.936       .  S
Zn208       O213   2.032       .  S
Zn208       O217   1.990       .  S
Zn208       O224   1.999       .  S
Zn209       O212   1.920       .  S
Zn209       O214   1.965       .  S
Zn209       O216   1.993       .  S
Zn209       O220   1.996       .  S
Zn210       O212   1.954       .  S
Zn210       O215   2.062       .  S
Zn210       O218   2.047       .  S
Zn210       O221   2.007       .  S
Zn211       O212   1.943       .  S
Zn211       O219   2.034       .  S
Zn211       O222   2.034       .  S
Zn211       O223   2.022       .  S
O213        C225   1.275       .  A
O214        C226   1.270       .  A
O215        C227   1.280       .  A
O216        C225   1.270       .  A
O217        C227   1.270       .  A
O218        C226   1.280       .  A
O219        C228   1.276       .  A
O220        C229   1.271       .  A
O221        C228   1.271       .  A
O222        C229   1.275       .  A
O223        C230   1.276       .  A
O224        C230   1.274       .  A
C225        C972   1.482       .  S
C226        C566   1.487       .  S
C227        C524   1.491       .  S
C228        C961   1.480       .  S
C229        C510   1.478       .  S
C230        C552   1.470       .  S
Zn231       O235   1.927       .  S
Zn231       O236   2.004       .  S
Zn231       O240   2.002       .  S
Zn231       O247   1.982       .  S
Zn232       O235   1.944       .  S
Zn232       O237   2.018       .  S
Zn232       O239   2.019       .  S
Zn232       O243   2.019       .  S
Zn233       O235   1.937       .  S
Zn233       O238   2.051       .  S
Zn233       O241   2.020       .  S
Zn233       O244   2.015       .  S
Zn234       O235   1.960       .  S
Zn234       O242   2.055       .  S
Zn234       O245   2.012       .  S
Zn234       O246   2.050       .  S
O236        C248   1.272       .  A
O237        C249   1.275       .  A
O238        C250   1.278       .  A
O239        C248   1.272       .  A
O240        C250   1.273       .  A
O241        C249   1.276       .  A
O242        C251   1.279       .  A
O243        C252   1.275       .  A
O244        C251   1.273       .  A
O245        C252   1.273       .  A
O246        C253   1.278       .  A
O247        C253   1.272       .  A
C248        C468   1.485       .  S
C249        C485   1.472       .  S
C250        C832   1.492       .  S
C251        C580   1.489       .  S
C252        C849   1.475       .  S
C253        C499   1.488       .  S
Zn254       O258   1.951       .  S
Zn254       O259   2.043       .  S
Zn254       O263   2.027       .  S
Zn254       O270   2.035       .  S
Zn255       O258   1.954       .  S
Zn255       O260   2.067       .  S
Zn255       O262   2.012       .  S
Zn255       O266   2.053       .  S
Zn256       O258   1.941       .  S
Zn256       O261   2.001       .  S
Zn256       O264   1.988       .  S
Zn256       O267   2.047       .  S
Zn257       O258   1.913       .  S
Zn257       O265   1.976       .  S
Zn257       O268   1.956       .  S
Zn257       O269   1.978       .  S
O259        C271   1.277       .  A
O260        C272   1.281       .  A
O261        C273   1.274       .  A
O262        C271   1.274       .  A
O263        C273   1.278       .  A
O264        C272   1.271       .  A
O265        C274   1.268       .  A
O266        C275   1.280       .  A
O267        C274   1.276       .  A
O268        C275   1.268       .  A
O269        C276   1.267       .  A
O270        C276   1.274       .  A
C271        C807   1.485       .  S
C272        C527   1.491       .  S
C273        C496   1.468       .  S
C274        C793   1.483       .  S
C275        C482   1.482       .  S
C276        C454   1.469       .  S
Zn277       O281   1.953       .  S
Zn277       O282   2.046       .  S
Zn277       O286   1.998       .  S
Zn277       O293   2.048       .  S
Zn278       O281   1.923       .  S
Zn278       O283   1.987       .  S
Zn278       O285   1.969       .  S
Zn278       O289   1.975       .  S
Zn279       O281   1.944       .  S
Zn279       O284   2.039       .  S
Zn279       O287   2.023       .  S
Zn279       O290   2.040       .  S
Zn280       O281   1.934       .  S
Zn280       O288   2.006       .  S
Zn280       O291   2.033       .  S
Zn280       O292   2.008       .  S
O282        C294   1.278       .  A
O283        C295   1.268       .  A
O284        C296   1.279       .  A
O285        C294   1.269       .  A
O286        C296   1.271       .  A
O287        C295   1.275       .  A
O288        C297   1.274       .  A
O289        C298   1.268       .  A
O290        C297   1.279       .  A
O291        C298   1.276       .  A
O292        C299   1.273       .  A
O293        C299   1.278       .  A
C294        C426   1.472       .  S
C295        C471   1.482       .  S
C296        C737   1.492       .  S
C297        C412   1.475       .  S
C298        C723   1.478       .  S
C299        C440   1.489       .  S
Zn300       O304   1.947       .  S
Zn300       O305   2.027       .  S
Zn300       O309   2.039       .  S
Zn300       O316   2.043       .  S
Zn301       O304   1.930       .  S
Zn301       O306   2.033       .  S
Zn301       O308   1.991       .  S
Zn301       O312   1.983       .  S
Zn302       O304   1.913       .  S
Zn302       O307   1.978       .  S
Zn302       O310   1.987       .  S
Zn302       O313   1.971       .  S
Zn303       O304   1.945       .  S
Zn303       O311   2.058       .  S
Zn303       O314   2.079       .  S
Zn303       O315   2.015       .  S
O305        C317   1.279       .  A
O306        C318   1.275       .  A
O307        C319   1.270       .  A
O308        C317   1.272       .  A
O309        C319   1.275       .  A
O310        C318   1.270       .  A
O311        C320   1.282       .  A
O312        C321   1.269       .  A
O313        C320   1.270       .  A
O314        C321   1.281       .  A
O315        C322   1.275       .  A
O316        C322   1.277       .  A
C317        C429   1.489       .  S
C318        C695   1.476       .  S
C319        C457   1.480       .  S
C320        C415   1.488       .  S
C321        C398   1.489       .  S
C322        C681   1.497       .  S
Zn323       O327   1.936       .  S
Zn323       O328   2.034       .  S
Zn323       O332   2.021       .  S
Zn323       O339   1.984       .  S
Zn324      O1367   1.912       .  S
Zn324       O329   1.987       .  S
Zn324       O335   1.968       .  S
Zn324      O1371   1.991       .  S
Zn325       O327   1.936       .  S
Zn325       O330   2.018       .  S
Zn325       O333   2.017       .  S
Zn325       O336   2.012       .  S
Zn326      O1367   1.949       .  S
Zn326       O337   2.059       .  S
Zn326      O1374   2.017       .  S
Zn326      O1378   2.055       .  S
O327      Zn1364   1.912   1_554  S
O327      Zn1366   1.949       .  S
O328        C340   1.275       .  A
O329       C1381   1.269       .  A
O330        C342   1.274       .  A
O331      Zn1364   1.991       .  S
O331        C340   1.271   1_556  A
O332        C342   1.276       .  A
O333        C341   1.274       .  A
O334      Zn1366   2.017       .  S
O334        C343   1.274       .  A
O335        C344   1.270       .  A
O336        C343   1.274       .  A
O337        C344   1.280       .  A
O338      Zn1366   2.055       .  S
O338        C345   1.281       .  A
O339        C345   1.269       .  A
C340        C611   1.486       .  S
C341       O1369   1.269       .  A
C341        C538   1.470       .  S
C342        C384   1.475       .  S
C343        C597   1.484       .  S
C344        C370   1.484       .  S
C345        C443   1.486       .  S
Zn346       O350   1.956       .  S
Zn346       O351   2.020       .  S
Zn346       O355   2.073       .  S
Zn346       O362   2.060       .  S
Zn347       O350   1.945       .  S
Zn347       O352   2.030       .  S
Zn347       O354   2.035       .  S
Zn347       O358   2.034       .  S
Zn348       O350   1.936       .  S
Zn348       O353   1.991       .  S
Zn348       O356   1.999       .  S
Zn348       O359   2.030       .  S
Zn349       O350   1.925       .  S
Zn349       O357   1.999       .  S
Zn349       O360   1.997       .  S
Zn349       O361   1.977       .  S
O351        C363   1.275       .  A
O352        C364   1.277       .  A
O353        C365   1.270       .  A
O354        C363   1.277       .  A
O355        C365   1.280       .  A
O356        C364   1.273       .  A
O357        C366   1.272       .  A
O358        C367   1.273       .  A
O359        C366   1.276       .  A
O360        C367   1.271       .  A
O361        C368   1.270       .  A
O362        C368   1.281       .  A
C363        C636   1.483       .  S
C364        C373   1.466       .  S
C365        C401   1.490       .  S
C366        C622   1.479       .  S
C367        C513   1.480       .  S
C368        C387   1.472       .  S
C369        C370   1.410       .  A
C369        C374   1.403       .  A
C369        H376   1.084       .  S
C370        C371   1.412       .  A
C371        C372   1.404       .  A
C371        N378   1.435       .  S
C372        C373   1.403       .  A
C372        H377   1.084       .  S
C373        C374   1.410       .  A
C374        N375   1.444       .  S
N375        O379   1.263       .  A
N375        O380   1.263       .  A
N378        O381   1.263       .  A
N378        O382   1.262       .  A
C383        C384   1.400       .  A
C383        C388   1.401       .  A
C383        H390   1.084       .  S
C384        C385   1.423       .  A
C385        C386   1.407       .  A
C385        N392   1.444       .  S
C386        C387   1.399       .  A
C386        H391   1.084       .  S
C387        C388   1.416       .  A
C388        N389   1.440       .  S
N389        O393   1.263       .  A
N389        O394   1.262       .  A
N392        O395   1.261       .  A
N392        O396   1.263       .  A
C397        C398   1.411       .  A
C397        C402   1.408       .  A
C397        H404   1.084       .  S
C398        C399   1.407       .  A
C399        C400   1.406       .  A
C399        N406   1.431       .  S
C400        C401   1.411       .  A
C400        H405   1.084       .  S
C401        C402   1.413       .  A
C402        N403   1.436       .  S
N403        O407   1.263       .  A
N403        O408   1.262       .  A
N406        O409   1.262       .  A
N406        O410   1.262       .  A
C411        C416   1.394       .  A
C411       C1452   1.398       .  A
C411       H1458   1.071       .  S
C412       C1451   1.398   1_554  A
C412       C1453   1.415   1_554  A
C413        C414   1.411       .  A
C413       C1452   1.415       .  A
C413        N420   1.445       .  S
C414        C415   1.415       .  A
C414        H419   1.083       .  S
C415        C416   1.406       .  A
C416        N417   1.430       .  S
N417        O421   1.262       .  A
N417        O422   1.262       .  A
H418       C1451   1.071   1_554  S
N420        O424   1.263       .  A
N420       O1463   1.262       .  A
O423       N1460   1.262   1_554  A
C425        C426   1.398       .  A
C425        C430   1.401       .  A
C425        H432   1.082       .  S
C426        C427   1.415       .  A
C427        C428   1.402       .  A
C427        N434   1.441       .  S
C428        C429   1.406       .  A
C428        H433   1.083       .  S
C429        C430   1.421       .  A
C430        N431   1.435       .  S
N431        O435   1.262       .  A
N431        O436   1.263       .  A
N434        O437   1.263       .  A
N434        O438   1.263       .  A
C439        C440   1.398       .  A
C439        C444   1.406       .  A
C439        H446   1.084       .  S
C440        C441   1.415       .  A
C441        C442   1.400       .  A
C441        N448   1.428       .  S
C442        C443   1.396       .  A
C442        H447   1.084       .  S
C443        C444   1.427       .  A
C444        N445   1.436       .  S
N445        O449   1.263       .  A
N445        O450   1.259       .  A
N448        O451   1.263       .  A
N448        O452   1.263       .  A
C453        C454   1.402       .  A
C453        C458   1.406   1_655  A
C453        H460   1.084       .  S
C454        C455   1.413       .  A
C455        C456   1.398   1_655  A
C455        N462   1.439       .  S
C456        C457   1.405       .  A
C456        H461   1.084       .  S
C457        C458   1.416       .  A
C458        N459   1.437       .  S
N459        O463   1.263       .  A
N459        O464   1.263       .  A
N462        O465   1.262       .  A
N462        O466   1.263       .  A
C467        C468   1.406       .  A
C467        C472   1.400   1_655  A
C467        H474   1.084       .  S
C468        C469   1.415       .  A
C469        C470   1.399   1_655  A
C469        N476   1.430       .  S
C470        C471   1.402       .  A
C470        H475   1.084       .  S
C471        C472   1.415       .  A
C472        N473   1.432       .  S
N473        O477   1.262       .  A
N473        O478   1.262       .  A
N476        O479   1.262       .  A
N476        O480   1.262       .  A
C481        C482   1.413       .  A
C481        C486   1.406       .  A
C481        H488   1.083       .  S
C482        C483   1.408       .  A
C483        C484   1.396       .  A
C483        N490   1.434       .  S
C484       C1525   1.396       .  A
C484       H1529   1.069       .  S
C485       C1524   1.396   1_554  A
C485       C1526   1.411   1_554  A
C486       C1525   1.411       .  A
C486        N487   1.440       .  S
N487        O491   1.263       .  A
N487       O1532   1.261       .  A
H489       C1524   1.069   1_554  S
N490        O493   1.262       .  A
N490        O494   1.262       .  A
O492       N1527   1.261   1_554  A
C495        C496   1.403       .  A
C495        C500   1.402       .  A
C495        H502   1.085       .  S
C496        C497   1.410       .  A
C497        C498   1.404       .  A
C497        N504   1.443       .  S
C498        C499   1.411       .  A
C498        H503   1.083       .  S
C499        C500   1.413       .  A
C500        N501   1.432       .  S
N501        O505   1.262       .  A
N501        O506   1.262       .  A
N504        O507   1.263       .  A
N504        O508   1.263       .  A
C509        C510   1.403       .  A
C509        C514   1.405       .  A
C509        H516   1.084       .  S
C510        C511   1.416       .  A
C511        C512   1.402       .  A
C511        N518   1.440       .  S
C512        C513   1.404       .  A
C512        H517   1.084       .  S
C513        C514   1.414       .  A
C514        N515   1.434       .  S
N515        O519   1.262       .  A
N515        O520   1.262       .  A
N518        O521   1.263       .  A
N518        O522   1.263       .  A
C523        C524   1.412       .  A
C523        C528   1.407       .  A
C523        H530   1.084       .  S
C524        C525   1.412       .  A
C525        C526   1.406       .  A
C525        N532   1.437       .  S
C526        C527   1.412       .  A
C526        H531   1.084       .  S
C527        C528   1.412       .  A
C528        N529   1.438       .  S
N529        O533   1.263       .  A
N529        O534   1.263       .  A
N532        O535   1.263       .  A
N532        O536   1.262       .  A
C537        C538   1.402       .  A
C537        C542   1.402       .  A
C537        H544   1.084       .  S
C538       C1579   1.413   1_554  A
C539        C540   1.398       .  A
C539       C1578   1.413       .  A
C539        N546   1.435       .  S
C540       C1581   1.403       .  A
C540        H545   1.084       .  S
C541        C542   1.414       .  A
C541       C1580   1.403   1_554  A
C542        N543   1.438       .  S
N543        O547   1.263       .  A
N543        O548   1.263       .  A
N546        O549   1.262       .  A
N546        O550   1.262       .  A
C551        C552   1.404       .  A
C551        C556   1.403       .  A
C551        H558   1.085       .  S
C552        C553   1.409       .  A
C553        C554   1.400       .  A
C553        N560   1.439       .  S
C554        C555   1.413       .  A
C554        H559   1.083       .  S
C555        C556   1.414       .  A
C556        N557   1.432       .  S
N557        O561   1.262       .  A
N557        O562   1.262       .  A
N560        O563   1.262       .  A
N560        O564   1.263       .  A
C565        C566   1.412       .  A
C565        C570   1.400       .  A
C565        H572   1.083       .  S
C566        C567   1.412       .  A
C567        C568   1.400       .  A
C567        N574   1.432       .  S
C568        C569   1.402       .  A
C568        H573   1.081       .  S
C569        C570   1.408       .  A
C570        N571   1.437       .  S
N571        O575   1.263       .  A
N571        O576   1.261       .  A
N574        O577   1.262       .  A
N574        O578   1.263       .  A
C579        C580   1.400       .  A
C579        C584   1.411       .  A
C579        H586   1.083       .  S
C580        C581   1.413       .  A
C581        C582   1.396       .  A
C581        N588   1.420       .  S
C582        C583   1.393       .  A
C582        H587   1.084       .  S
C583        C584   1.423       .  A
C584        N585   1.439       .  S
N585        O589   1.262       .  A
N585        O590   1.263       .  A
N588        O591   1.262       .  A
N588        O592   1.262       .  A
C593        C594   1.404       .  A
C593       C1638   1.400       .  A
C593        H600   1.084       .  S
C594        C595   1.415       .  A
C595        C596   1.404       .  A
C595        N602   1.437       .  S
C596       C1637   1.406       .  A
C596        H601   1.084       .  S
C597        C598   1.416       .  A
C597       C1636   1.406   1_554  A
C598       C1633   1.400   1_554  A
C598        N599   1.437       .  S
N599        O603   1.263       .  A
N599        O604   1.263   1_554  A
N602        O605   1.263       .  A
N602        O606   1.263       .  A
C607        C612   1.403   1_545  A
C607       C1648   1.407   1_554  A
C607        H614   1.084       .  S
C608        C609   1.410       .  A
C608       C1647   1.407       .  A
C609        C610   1.400   1_545  A
C609        N616   1.432       .  S
C610       C1651   1.409       .  A
C610        H615   1.084       .  S
C611        C612   1.413       .  A
C611       C1650   1.409   1_554  A
C612        N613   1.432       .  S
N613        O617   1.262   1_565  A
N613        O618   1.262       .  A
N616        O619   1.262       .  A
N616        O620   1.262       .  A
C621        C622   1.403       .  A
C621        C626   1.405       .  A
C621        H628   1.084       .  S
C622        C623   1.415       .  A
C623        C624   1.403       .  A
C623        N630   1.440       .  S
C624        C625   1.405       .  A
C624        H629   1.084       .  S
C625        C626   1.417       .  A
C626        N627   1.438       .  S
N627        O631   1.263       .  A
N627        O632   1.263       .  A
N630        O633   1.263       .  A
N630        O634   1.263       .  A
C635        C636   1.405       .  A
C635        C640   1.407   1_565  A
C635        H642   1.084       .  S
C636        C637   1.416       .  A
C637        C638   1.404   1_565  A
C637        N644   1.439       .  S
C638        C639   1.403       .  A
C638        H643   1.084       .  S
C639        C640   1.416       .  A
C640        N641   1.441       .  S
N641        O645   1.263       .  A
N641        O646   1.263       .  A
N644        O647   1.263       .  A
N644        O648   1.263       .  A
C649        C650   1.397       .  A
C649        C654   1.396       .  A
C649        H656   1.085       .  S
C650        C651   1.421       .  A
C651        C652   1.406       .  A
C651        N658   1.442       .  S
C652        C653   1.403       .  A
C652        H657   1.083       .  S
C653        C654   1.419       .  A
C654        N655   1.430       .  S
N655        O659   1.262       .  A
N655        O660   1.262       .  A
N658        O661   1.261       .  A
N658        O662   1.263       .  A
C663        C664   1.402       .  A
C663        C668   1.409       .  A
C663        H670   1.083       .  S
C664        C665   1.414       .  A
C665        C666   1.396       .  A
C665        N672   1.432       .  S
C666        C667   1.397       .  A
C666        H671   1.085       .  S
C667        C668   1.423       .  A
C668        N669   1.450       .  S
N669        O673   1.263       .  A
N669        O674   1.262       .  A
N672        O675   1.262       .  A
N672        O676   1.262       .  A
C677        C678   1.402       .  A
C677        C682   1.405       .  A
C677        H684   1.084       .  S
C678        C679   1.412       .  A
C679        C680   1.407       .  A
C679        N686   1.443       .  S
C680        C681   1.412       .  A
C680        H685   1.083       .  S
C681        C682   1.418       .  A
C682        N683   1.433       .  S
N683        O687   1.262       .  A
N683        O688   1.262       .  A
N686        O689   1.262       .  A
N686        O690   1.263       .  A
C691        C692   1.400       .  A
C691        C696   1.400   1_545  A
C691        H698   1.084       .  S
C692        C693   1.417       .  A
C693        C694   1.407   1_545  A
C693        N700   1.441       .  S
C694        C695   1.403       .  A
C694        H699   1.084       .  S
C695        C696   1.415       .  A
C696        N697   1.440       .  S
N697        O701   1.263       .  A
N697        O702   1.263       .  A
N700        O703   1.262       .  A
N700        O704   1.263       .  A
C705        C706   1.400       .  A
C705        C710   1.415       .  A
C705        H712   1.083       .  S
C706        C707   1.413       .  A
C707        C708   1.398       .  A
C707        N714   1.427       .  S
C708        C709   1.395       .  A
C708        H713   1.084       .  S
C709        C710   1.426       .  A
C710        N711   1.449       .  S
N711        O715   1.263       .  A
N711        O716   1.262       .  A
N714        O717   1.262       .  A
N714        O718   1.262       .  A
C719        C720   1.403       .  A
C719        C724   1.396       .  A
C719        H726   1.084       .  S
C720        C721   1.415       .  A
C721        C722   1.400       .  A
C721        N728   1.429       .  S
C722        C723   1.402       .  A
C722        H727   1.084       .  S
C723        C724   1.414       .  A
C724        N725   1.430       .  S
N725        O729   1.262       .  A
N725        O730   1.262       .  A
N728        O731   1.262       .  A
N728        O732   1.262       .  A
C733        C734   1.403       .  A
C733        C738   1.402   1_545  A
C733        H740   1.084       .  S
C734        C735   1.421       .  A
C735        C736   1.400   1_545  A
C735        N742   1.432       .  S
C736        C737   1.403       .  A
C736        H741   1.084       .  S
C737        C738   1.421       .  A
C738        N739   1.433       .  S
N739        O743   1.262       .  A
N739        O744   1.262       .  A
N742        O745   1.262       .  A
N742        O746   1.262       .  A
C747        C748   1.408       .  A
C747        C752   1.401       .  A
C747        H754   1.084       .  S
C748        C749   1.413       .  A
C749        C750   1.405       .  A
C749        N756   1.437       .  S
C750        C751   1.406       .  A
C750        H755   1.084       .  S
C751        C752   1.412       .  A
C752        N753   1.439       .  S
N753        O757   1.263       .  A
N753        O758   1.262       .  A
N756        O759   1.262       .  A
N756        O760   1.262       .  A
C761        C766   1.397       .  A
C761       C1802   1.399   1_554  A
C761       H1808   1.079   1_554  S
C762       C1801   1.399       .  A
C762       C1803   1.412       .  A
C763        C764   1.407       .  A
C763       C1802   1.412   1_554  A
C763       N1810   1.446   1_554  S
C764        C765   1.414       .  A
C764        H769   1.083       .  S
C765        C766   1.410       .  A
C766        N767   1.430       .  S
N767        O771   1.262       .  A
N767        O772   1.262       .  A
H768       C1801   1.079       .  S
N770       C1803   1.446       .  S
N770        O773   1.262       .  A
N770       O1814   1.263       .  A
O774       N1810   1.263   1_554  A
C775        C776   1.406       .  A
C775        C780   1.412       .  A
C775        H782   1.083       .  S
C776        C777   1.427       .  A
C777        C778   1.402       .  A
C777        N784   1.434       .  S
C778        C779   1.395       .  A
C778        H783   1.084       .  S
C779        C780   1.420       .  A
C780        N781   1.445       .  S
N781        O785   1.263       .  A
N781        O786   1.263       .  A
N784        O787   1.262       .  A
N784        O788   1.262       .  A
C789        C790   1.397       .  A
C789        C794   1.399       .  A
C789        H796   1.084       .  S
C790        C791   1.417       .  A
C791        C792   1.409       .  A
C791        N798   1.443       .  S
C792        C793   1.405       .  A
C792        H797   1.083       .  S
C793        C794   1.418       .  A
C794        N795   1.438       .  S
N795        O799   1.263       .  A
N795        O800   1.263       .  A
N798        O801   1.262       .  A
N798        O802   1.263       .  A
C803        C804   1.405       .  A
C803        C808   1.409   1_545  A
C803        H810   1.084       .  S
C804        C805   1.412       .  A
C805        C806   1.401   1_545  A
C805        N812   1.431       .  S
C806        C807   1.405       .  A
C806        H811   1.084       .  S
C807        C808   1.418       .  A
C808        N809   1.438       .  S
N809        O813   1.263       .  A
N809        O814   1.263       .  A
N812        O815   1.262       .  A
N812        O816   1.262       .  A
C817        C818   1.403       .  A
C817        C822   1.402   1_655  A
C817        H824   1.084       .  S
C818        C819   1.416       .  A
C819        C820   1.407   1_655  A
C819        N826   1.438       .  S
C820        C821   1.405       .  A
C820        H825   1.084       .  S
C821        C822   1.416       .  A
C822        N823   1.440       .  S
N823        O827   1.263       .  A
N823        O828   1.263       .  A
N826        O829   1.261       .  A
N826        O830   1.263       .  A
C831        C832   1.408       .  A
C831        C836   1.404       .  A
C831        H838   1.084       .  S
C832        C833   1.414       .  A
C833        C834   1.404       .  A
C833        N840   1.432       .  S
C834        C835   1.409       .  A
C834        H839   1.084       .  S
C835        C836   1.415       .  A
C836        N837   1.432       .  S
N837        O841   1.262       .  A
N837        O842   1.262       .  A
N840        O843   1.262       .  A
N840        O844   1.262       .  A
C845        C846   1.403       .  A
C845        C850   1.405   1_545  A
C845        H852   1.084       .  S
C846        C847   1.414       .  A
C847        C848   1.403   1_545  A
C847        N854   1.442       .  S
C848        C849   1.403       .  A
C848        H853   1.084       .  S
C849        C850   1.415       .  A
C850        N851   1.441       .  S
N851        O855   1.263       .  A
N851        O856   1.263       .  A
N854        O857   1.263       .  A
N854        O858   1.263       .  A
C859        C860   1.403       .  A
C859        C864   1.401   1_655  A
C859        H866   1.084       .  S
C860        C861   1.416       .  A
C861        C862   1.407   1_655  A
C861        N868   1.439       .  S
C862        C863   1.403       .  A
C862        H867   1.084       .  S
C863        C864   1.416       .  A
C864        N865   1.441       .  S
N865        O869   1.263       .  A
N865        O870   1.263       .  A
N868        O871   1.263       .  A
N868        O872   1.263       .  A
C873        C874   1.397       .  A
C873        C878   1.399       .  A
C873        H880   1.084       .  S
C874        C875   1.415       .  A
C875        C876   1.403       .  A
C875        N882   1.437       .  S
C876        C877   1.402       .  A
C876        H881   1.083       .  S
C877        C878   1.421       .  A
C878        N879   1.431       .  S
N879        O883   1.262       .  A
N879        O884   1.262       .  A
N882        O885   1.261       .  A
N882        O886   1.263       .  A
C887        C892   1.405       .  A
C887       C1928   1.404   1_554  A
C887       H1934   1.084   1_554  S
C888       C1927   1.404       .  A
C888       C1929   1.413       .  A
C889        C890   1.403       .  A
C889       C1928   1.413   1_554  A
C889       N1936   1.445   1_554  S
C890        C891   1.406       .  A
C890        H895   1.084       .  S
C891        C892   1.414       .  A
C892        N893   1.441       .  S
N893        O897   1.263       .  A
N893        O898   1.263       .  A
H894       C1927   1.084       .  S
N896       C1929   1.445       .  S
N896        O899   1.262       .  A
N896       O1940   1.263       .  A
O900       N1936   1.263   1_554  A
C901        C906   1.402       .  A
C901       C1942   1.407   1_554  A
C901        H908   1.084       .  S
C902        C903   1.413       .  A
C902       C1941   1.407       .  A
C903        C904   1.401       .  A
C903        N910   1.432       .  S
C904       C1945   1.409       .  A
C904        H909   1.084       .  S
C905        C906   1.414       .  A
C905       C1944   1.409   1_554  A
C906        N907   1.432       .  S
N907        O911   1.262       .  A
N907        O912   1.262       .  A
N910        O913   1.262       .  A
N910        O914   1.262       .  A
C915        C916   1.402       .  A
C915       C1960   1.405   1_545  A
C915        H922   1.084       .  S
C916        C917   1.415       .  A
C917       C1958   1.404   1_545  A
C917        N924   1.440       .  S
C918        C919   1.404       .  A
C918       C1957   1.404   1_564  A
C918        H923   1.084       .  S
C919        C920   1.417       .  A
C920       C1955   1.405   1_564  A
C920        N921   1.439       .  S
N921        O926   1.263       .  A
N921       O1965   1.263   1_554  A
N924        O927   1.263       .  A
N924       O1968   1.263       .  A
O925       N1961   1.263       .  A
O928       N1964   1.263   1_554  A
C929        C930   1.405       .  A
C929        C934   1.408       .  A
C929        H936   1.084       .  S
C930       C1971   1.416       .  A
C931        C932   1.399       .  A
C931       C1970   1.416       .  A
C931        N938   1.438   1_556  S
C932       C1973   1.402       .  A
C932        H937   1.085   1_556  S
C933        C934   1.416       .  A
C933       C1972   1.402       .  A
C934        N935   1.438       .  S
N935        O939   1.263       .  A
N935        O940   1.262       .  A
N938        O941   1.263       .  A
N938        O942   1.263       .  A
C943        C944   1.410       .  A
C943        C948   1.409       .  A
C943        H950   1.083       .  S
C944        C945   1.412       .  A
C945        C946   1.407       .  A
C945        N952   1.439       .  S
C946        C947   1.411       .  A
C946        H951   1.084       .  S
C947        C948   1.413       .  A
C948        N949   1.440       .  S
N949        O953   1.263       .  A
N949        O954   1.263       .  A
N952       O1995   1.263       .  A
N952       O1996   1.263       .  A
O955       N1992   1.263   1_554  A
O956       N1992   1.263   1_554  A
C957        C958   1.402       .  A
C957        C962   1.402       .  A
C957        H964   1.084       .  S
C958        C959   1.416       .  A
C959        C960   1.404       .  A
C959        N966   1.438       .  S
C960        C961   1.404       .  A
C960        H965   1.084       .  S
C961        C962   1.413       .  A
C962        N963   1.433       .  S
N963        O967   1.262       .  A
N963        O968   1.262       .  A
N966        O969   1.262       .  A
N966        O970   1.263       .  A
C971        C972   1.403       .  A
C971        C976   1.405   1_565  A
C971        H978   1.084       .  S
C972        C973   1.416       .  A
C973        C974   1.402   1_565  A
C973        N980   1.438       .  S
C974        C975   1.405       .  A
C974        H979   1.084       .  S
C975        C976   1.418       .  A
C976        N977   1.437       .  S
N977        O981   1.263       .  A
N977        O982   1.263       .  A
N980        O983   1.263       .  A
N980        O984   1.263       .  A
C985        C986   1.406       .  A
C985        C990   1.403       .  A
C985        H992   1.084       .  S
C986        C987   1.415       .  A
C987        C988   1.404       .  A
C987        N994   1.433       .  S
C988        C989   1.402       .  A
C988        H993   1.084       .  S
C989        C990   1.415       .  A
C990        N991   1.442       .  S
N991        O995   1.263       .  A
N991        O996   1.263       .  A
N994        O997   1.262       .  A
N994        O998   1.262       .  A
C999       C1000   1.400       .  A
C999       C1004   1.402       .  A
C999       H1006   1.084       .  S
C1000      C1001   1.415       .  A
C1001      C1002   1.400       .  A
C1001      N1008   1.438       .  S
C1002      C1003   1.405       .  A
C1002      H1007   1.083       .  S
C1003      C1004   1.420       .  A
C1004      N1005   1.434       .  S
N1005      O1009   1.262       .  A
N1005      O1010   1.262       .  A
N1008      O1011   1.263       .  A
N1008      O1012   1.263       .  A
C1013      C1014   1.399       .  A
C1013      C1018   1.404       .  A
C1013      H1020   1.084       .  S
C1014      C1015   1.413       .  A
C1015      C1016   1.402       .  A
C1015      N1022   1.434       .  S
C1016      C1017   1.399       .  A
C1016      H1021   1.084       .  S
C1017      C1018   1.419       .  A
C1018      N1019   1.440       .  S
N1019      O1023   1.263       .  A
N1019      O1024   1.262       .  A
N1022      O1025   1.262       .  A
N1022      O1026   1.263       .  A
C1027      C1028   1.402       .  A
C1027      C1032   1.411       .  A
C1027      H1034   1.083       .  S
C1028      C1029   1.420       .  A
C1029      C1030   1.406       .  A
C1029      N1036   1.448       .  S
C1030      C1031   1.399       .  A
C1030      H1035   1.084       .  S
C1031      C1032   1.423       .  A
C1032      N1033   1.450       .  S
N1033      O1037   1.263       .  A
N1033      O1038   1.262       .  A
N1036      O1039   1.261       .  A
N1036      O1040   1.263       .  A
Zn1041     O1045   1.944       .  S
Zn1041     O1046   2.003       .  S
Zn1041     O1050   2.038       .  S
Zn1041     O1057   2.025       .  S
Zn1042     O1045   1.957       .  S
Zn1042     O1047   2.039       .  S
Zn1042     O1049   2.048       .  S
Zn1042     O1053   2.012       .  S
Zn1043     O1045   1.928       .  S
Zn1043     O1048   1.995       .  S
Zn1043     O1051   1.975       .  S
Zn1043     O1054   1.997       .  S
Zn1044     O1045   1.949       .  S
Zn1044     O1052   2.033       .  S
Zn1044     O1055   2.023       .  S
Zn1044     O1056   2.019       .  S
O1046      C1058   1.271       .  A
O1047      C1059   1.278       .  A
O1048      C1060   1.270       .  A
O1049      C1058   1.278       .  A
O1050      C1060   1.276       .  A
O1051      C1059   1.270       .  A
O1052      C1061   1.275       .  A
O1053      C1062   1.273       .  A
O1054      C1061   1.271       .  A
O1055      C1062   1.276       .  A
O1056      C1063   1.274       .  A
O1057      C1063   1.276       .  A
C1058      C2068   1.474       .  S
C1059      C2040   1.475       .  S
C1060      C1998   1.475       .  S
C1061      C2029   1.474       .  S
C1062      C2015   1.487       .  S
C1063      C2054   1.471       .  S
Zn1064     O1068   1.947       .  S
Zn1064     O1073   2.012       .  S
Zn1064     O1080   2.067       .  S
Zn1065     O1072   1.987       .  S
Zn1066     O1068   1.938       .  S
Zn1066     O1071   2.028       .  S
Zn1066     O1074   2.040       .  S
Zn1066     O1077   2.017       .  S
Zn1067     O1068   1.931       .  S
Zn1067     O1075   2.005       .  S
Zn1067     O1078   2.029       .  S
Zn1067     O1079   2.000       .  S
O1069      C1081   1.280       .  A
O1070      C1082   1.271       .  A
O1071      C1083   1.275       .  A
O1072      C1081   1.271       .  A
O1073      C1083   1.274       .  A
O1074      C1082   1.276       .  A
O1075      C1084   1.274       .  A
O1076      C1085   1.272       .  A
O1077      C1084   1.277       .  A
O1078      C1085   1.275       .  A
O1079      C1086   1.271       .  A
O1080      C1086   1.280       .  A
C1081      C2057   1.472       .  S
C1082      C1970   1.482       .  S
C1083      C1942   1.486       .  S
C1084      C2043   1.485       .  S
C1085      C1956   1.477       .  S
C1086      C1984   1.490       .  S
Zn1087     O1091   1.923       .  S
Zn1087     O1092   1.983       .  S
Zn1087     O1096   2.005       .  S
Zn1087     O1103   1.999       .  S
Zn1088     O1091   1.951       .  S
Zn1088     O1093   2.053       .  S
Zn1088     O1095   2.052       .  S
Zn1088     O1099   2.008       .  S
Zn1089     O1091   1.933       .  S
Zn1089     O1094   2.022       .  S
Zn1089     O1097   1.986       .  S
Zn1089     O1100   2.000       .  S
Zn1090     O1091   1.945       .  S
Zn1090     O1098   2.036       .  S
Zn1090     O1101   2.045       .  S
Zn1090     O1102   2.033       .  S
O1092      C1104   1.272       .  A
O1093      C1105   1.278       .  A
O1094      C1106   1.273       .  A
O1095      C1104   1.280       .  A
O1096      C1106   1.272       .  A
O1097      C1105   1.268       .  A
O1098      C1107   1.278       .  A
O1099      C1108   1.273       .  A
O1100      C1107   1.273       .  A
O1101      C1108   1.277       .  A
O1102      C1109   1.275       .  A
O1103      C1109   1.272       .  A
C1104      C1931   1.475       .  S
C1105      C2071   1.474       .  S
C1106      C1886   1.473       .  S
C1107      C1914   1.469       .  S
C1108      C1875   1.495       .  S
C1109      C1900   1.480       .  S
Zn1110     O1114   1.953       .  S
Zn1110     O1115   2.075       .  S
Zn1110     O1119   2.015       .  S
Zn1110     O1126   2.057       .  S
Zn1111     O1114   1.933       .  S
Zn1111     O1116   1.996       .  S
Zn1111     O1118   1.989       .  S
Zn1111     O1122   2.028       .  S
Zn1112     O1114   1.947       .  S
Zn1112     O1117   2.044       .  S
Zn1112     O1120   2.035       .  S
Zn1112     O1123   2.041       .  S
Zn1113     O1114   1.920       .  S
Zn1113     O1121   1.998       .  S
Zn1113     O1124   1.995       .  S
Zn1113     O1125   1.971       .  S
O1115      C1127   1.281       .  A
O1116      C1128   1.274       .  A
O1117      C1129   1.278       .  A
O1118      C1127   1.270       .  A
O1119      C1129   1.273       .  A
O1120      C1128   1.278       .  A
O1121      C1130   1.271       .  A
O1122      C1131   1.274       .  A
O1123      C1130   1.275       .  A
O1124      C1131   1.270       .  A
O1125      C1132   1.269       .  A
O1126      C1132   1.282       .  A
C1127      C1987   1.490       .  S
C1128      C1928   1.466       .  S
C1129      C1844   1.486       .  S
C1130      C1858   1.478       .  S
C1131      C1830   1.468       .  S
C1132      C1917   1.486       .  S
Zn1133     O1137   1.937       .  S
Zn1133     O1138   2.037       .  S
Zn1133     O1142   2.017       .  S
Zn1133     O1149   2.018       .  S
Zn1134     O1137   1.914       .  S
Zn1134     O1139   1.974       .  S
Zn1134     O1141   1.990       .  S
Zn1134     O1145   1.986       .  S
Zn1135     O1137   1.954       .  S
Zn1135     O1140   1.999       .  S
Zn1135     O1143   2.051       .  S
Zn1135     O1146   2.059       .  S
Zn1136     O1137   1.931       .  S
Zn1136     O1144   1.999       .  S
Zn1136     O1147   2.046       .  S
Zn1136     O1148   2.011       .  S
O1138      C1150   1.275       .  A
O1139      C1151   1.270       .  A
O1140      C1152   1.271       .  A
O1141      C1150   1.270       .  A
O1142      C1152   1.276       .  A
O1143      C1151   1.280       .  A
O1144      C1153   1.270       .  A
O1145      C1154   1.269       .  A
O1146      C1153   1.279       .  A
O1147      C1154   1.279       .  A
O1148      C1155   1.276       .  A
O1149      C1155   1.275       .  A
C1150      C1903   1.478       .  S
C1151      C1805   1.490       .  S
C1152      C1760   1.481       .  S
C1153      C1819   1.478       .  S
C1154      C1774   1.492       .  S
C1155      C1791   1.473       .  S
Zn1156     O1160   1.920       .  S
Zn1156     O1161   2.000       .  S
Zn1156     O1165   1.992       .  S
Zn1156     O1172   1.973       .  S
Zn1157     O1160   1.948       .  S
Zn1157     O1162   2.025       .  S
Zn1157     O1164   2.035       .  S
Zn1157     O1168   2.028       .  S
Zn1158     O1160   1.934       .  S
Zn1158     O1163   2.030       .  S
Zn1158     O1166   2.008       .  S
Zn1158     O1169   1.988       .  S
Zn1159     O1160   1.961       .  S
Zn1159     O1167   2.081       .  S
Zn1159     O1170   2.029       .  S
Zn1159     O1171   2.059       .  S
O1161      C1173   1.272       .  A
O1162      C1174   1.275       .  A
O1163      C1175   1.274       .  A
O1164      C1173   1.275       .  A
O1165      C1175   1.270       .  A
O1166      C1174   1.275       .  A
O1167      C1176   1.282       .  A
O1168      C1177   1.275       .  A
O1169      C1176   1.269       .  A
O1170      C1177   1.275       .  A
O1171      C1178   1.280       .  A
O1172      C1178   1.271       .  A
C1173      C1861   1.481       .  S
C1174      C1802   1.467       .  S
C1175      C1732   1.471       .  S
C1176      C1746   1.484       .  S
C1177      C1718   1.474       .  S
C1178      C1788   1.481       .  S
Zn1179     O1183   1.923       .  S
Zn1179     O1184   2.001       .  S
Zn1179     O1188   2.006       .  S
Zn1179     O1195   1.972       .  S
Zn1180     O1183   1.940       .  S
Zn1180     O1185   2.012       .  S
Zn1180     O1187   2.032       .  S
Zn1180     O1191   2.023       .  S
Zn1181     O1183   1.928       .  S
Zn1181     O1186   2.037       .  S
Zn1181     O1189   2.011       .  S
Zn1181     O1192   1.983       .  S
Zn1182     O1183   1.960       .  S
Zn1182     O1190   2.078       .  S
Zn1182     O1193   2.015       .  S
Zn1182     O1194   2.051       .  S
O1184      C1196   1.272       .  A
O1185      C1197   1.275       .  A
O1186      C1198   1.276       .  A
O1187      C1196   1.274       .  A
O1188      C1198   1.272       .  A
O1189      C1197   1.275       .  A
O1190      C1199   1.282       .  A
O1191      C1200   1.276       .  A
O1192      C1199   1.267       .  A
O1193      C1200   1.274       .  A
O1194      C1201   1.281       .  A
O1195      C1201   1.269       .  A
C1196      C2026   1.483       .  S
C1197      C1707   1.464       .  S
C1198      C1679   1.479       .  S
C1199      C1816   1.501       .  S
C1200      C1665   1.484       .  S
C1201      C1693   1.487       .  S
Zn1202     O1218   1.985       .  S
Zn1203     O1206   1.923       .  S
Zn1203     O1208   1.995       .  S
Zn1203     O1210   2.023       .  S
Zn1203     O1214   1.991       .  S
Zn1204     O1206   1.938       .  S
Zn1204     O1209   2.036       .  S
Zn1204     O1212   2.034       .  S
Zn1204     O1215   2.033       .  S
Zn1205     O1206   1.944       .  S
Zn1205     O1213   2.002       .  S
Zn1205     O1216   2.053       .  S
O1207      C1219   1.273       .  A
O1208      C1220   1.272       .  A
O1209      C1221   1.275       .  A
O1210      C1219   1.275       .  A
O1211      C1221   1.272       .  A
O1212      C1220   1.278       .  A
O1213      C1222   1.273       .  A
O1214      C1223   1.270       .  A
O1215      C1222   1.276       .  A
O1216      C1223   1.278       .  A
O1217      C1224   1.280       .  A
O1218      C1224   1.270       .  A
C1219      C1634   1.481       .  S
C1220      C1690   1.471       .  S
C1221      C1973   1.476       .  S
C1222      C1648   1.482       .  S
C1223      C1749   1.475       .  S
C1224      C1704   1.479       .  S
Zn1225     O1229   1.937       .  S
Zn1225     O1230   2.030       .  S
Zn1225     O1234   2.020       .  S
Zn1225     O1241   2.020       .  S
Zn1226     O1237   2.060   1_554  S
Zn1227     O1229   1.932       .  S
Zn1227     O1232   1.999       .  S
Zn1227     O1235   1.994       .  S
Zn1227     O1238   2.031       .  S
Zn1228     O1239   1.967       .  S
Zn1228     O1240   1.989   1_556  S
O1230      C1242   1.276       .  A
O1231      C1243   1.280       .  A
O1232      C1244   1.273       .  A
O1233      C1242   1.274       .  A
O1234      C1244   1.276       .  A
O1235      C1243   1.271       .  A
O1236      C1245   1.272       .  A
O1237      C1246   1.279       .  A
O1238      C1245   1.274       .  A
O1239      C1246   1.270       .  A
O1241      C1247   1.274       .  A
C1242      C1959   1.483       .  S
C1243      C1623   1.479       .  S
C1244      C1609   1.470       .  S
C1245      C1945   1.489       .  S
C1246      C1595   1.491       .  S
C1247      C1581   1.471       .  S
Zn1248     O1252   1.936       .  S
Zn1248     O1253   2.032       .  S
Zn1248     O1257   1.990       .  S
Zn1248     O1264   1.999       .  S
Zn1249     O1252   1.920       .  S
Zn1249     O1254   1.965       .  S
Zn1249     O1256   1.993       .  S
Zn1249     O1260   1.996       .  S
Zn1250     O1252   1.954       .  S
Zn1250     O1255   2.062       .  S
Zn1250     O1258   2.047       .  S
Zn1250     O1261   2.007       .  S
Zn1251     O1252   1.943       .  S
Zn1251     O1259   2.034       .  S
Zn1251     O1262   2.034       .  S
Zn1251     O1263   2.022       .  S
O1253      C1265   1.275       .  A
O1254      C1266   1.270       .  A
O1255      C1267   1.280       .  A
O1256      C1265   1.270       .  A
O1257      C1267   1.270       .  A
O1258      C1266   1.280       .  A
O1259      C1268   1.276       .  A
O1260      C1269   1.271       .  A
O1261      C1268   1.271       .  A
O1262      C1269   1.275       .  A
O1263      C1270   1.276       .  A
O1264      C1270   1.274       .  A
C1265      C2012   1.482       .  S
C1266      C1606   1.487       .  S
C1267      C1564   1.491       .  S
C1268      C2001   1.480       .  S
C1269      C1550   1.478       .  S
C1270      C1592   1.470       .  S
Zn1271     O1275   1.927       .  S
Zn1271     O1276   2.004       .  S
Zn1271     O1280   2.002       .  S
Zn1271     O1287   1.982       .  S
Zn1272     O1275   1.944       .  S
Zn1272     O1277   2.018       .  S
Zn1272     O1279   2.019       .  S
Zn1272     O1283   2.019       .  S
Zn1273     O1275   1.937       .  S
Zn1273     O1278   2.051       .  S
Zn1273     O1281   2.020       .  S
Zn1273     O1284   2.015       .  S
Zn1274     O1275   1.960       .  S
Zn1274     O1282   2.055       .  S
Zn1274     O1285   2.012       .  S
Zn1274     O1286   2.050       .  S
O1276      C1288   1.272       .  A
O1277      C1289   1.275       .  A
O1278      C1290   1.278       .  A
O1279      C1288   1.272       .  A
O1280      C1290   1.273       .  A
O1281      C1289   1.276       .  A
O1282      C1291   1.279       .  A
O1283      C1292   1.275       .  A
O1284      C1291   1.273       .  A
O1285      C1292   1.273       .  A
O1286      C1293   1.278       .  A
O1287      C1293   1.272       .  A
C1288      C1508   1.485       .  S
C1289      C1525   1.472       .  S
C1290      C1872   1.492       .  S
C1291      C1620   1.489       .  S
C1292      C1889   1.475       .  S
C1293      C1539   1.488       .  S
Zn1294     O1298   1.951       .  S
Zn1294     O1299   2.043       .  S
Zn1294     O1303   2.027       .  S
Zn1294     O1310   2.035       .  S
Zn1295     O1298   1.954       .  S
Zn1295     O1300   2.067       .  S
Zn1295     O1302   2.012       .  S
Zn1295     O1306   2.053       .  S
Zn1296     O1298   1.941       .  S
Zn1296     O1301   2.001       .  S
Zn1296     O1304   1.988       .  S
Zn1296     O1307   2.047       .  S
Zn1297     O1298   1.913       .  S
Zn1297     O1305   1.976       .  S
Zn1297     O1308   1.956       .  S
Zn1297     O1309   1.978       .  S
O1299      C1311   1.277       .  A
O1300      C1312   1.281       .  A
O1301      C1313   1.274       .  A
O1302      C1311   1.274       .  A
O1303      C1313   1.278       .  A
O1304      C1312   1.271       .  A
O1305      C1314   1.268       .  A
O1306      C1315   1.280       .  A
O1307      C1314   1.276       .  A
O1308      C1315   1.268       .  A
O1309      C1316   1.267       .  A
O1310      C1316   1.274       .  A
C1311      C1847   1.485       .  S
C1312      C1567   1.491       .  S
C1313      C1536   1.468       .  S
C1314      C1833   1.483       .  S
C1315      C1522   1.482       .  S
C1316      C1494   1.469       .  S
Zn1317     O1321   1.953       .  S
Zn1317     O1322   2.046       .  S
Zn1317     O1326   1.998       .  S
Zn1317     O1333   2.048       .  S
Zn1318     O1321   1.923       .  S
Zn1318     O1323   1.987       .  S
Zn1318     O1325   1.969       .  S
Zn1318     O1329   1.975       .  S
Zn1319     O1321   1.944       .  S
Zn1319     O1324   2.039       .  S
Zn1319     O1327   2.023       .  S
Zn1319     O1330   2.040       .  S
Zn1320     O1321   1.934       .  S
Zn1320     O1328   2.006       .  S
Zn1320     O1331   2.033       .  S
Zn1320     O1332   2.008       .  S
O1322      C1334   1.278       .  A
O1323      C1335   1.268       .  A
O1324      C1336   1.279       .  A
O1325      C1334   1.269       .  A
O1326      C1336   1.271       .  A
O1327      C1335   1.275       .  A
O1328      C1337   1.274       .  A
O1329      C1338   1.268       .  A
O1330      C1337   1.279       .  A
O1331      C1338   1.276       .  A
O1332      C1339   1.273       .  A
O1333      C1339   1.278       .  A
C1334      C1466   1.472       .  S
C1335      C1511   1.482       .  S
C1336      C1777   1.492       .  S
C1337      C1452   1.475       .  S
C1338      C1763   1.478       .  S
C1339      C1480   1.489       .  S
Zn1340     O1344   1.947       .  S
Zn1340     O1345   2.027       .  S
Zn1340     O1349   2.039       .  S
Zn1340     O1356   2.043       .  S
Zn1341     O1344   1.930       .  S
Zn1341     O1346   2.033       .  S
Zn1341     O1348   1.991       .  S
Zn1341     O1352   1.983       .  S
Zn1342     O1344   1.913       .  S
Zn1342     O1347   1.978       .  S
Zn1342     O1350   1.987       .  S
Zn1342     O1353   1.971       .  S
Zn1343     O1344   1.945       .  S
Zn1343     O1351   2.058       .  S
Zn1343     O1354   2.079       .  S
Zn1343     O1355   2.015       .  S
O1345      C1357   1.279       .  A
O1346      C1358   1.275       .  A
O1347      C1359   1.270       .  A
O1348      C1357   1.272       .  A
O1349      C1359   1.275       .  A
O1350      C1358   1.270       .  A
O1351      C1360   1.282       .  A
O1352      C1361   1.269       .  A
O1353      C1360   1.270       .  A
O1354      C1361   1.281       .  A
O1355      C1362   1.275       .  A
O1356      C1362   1.277       .  A
C1357      C1469   1.489       .  S
C1358      C1735   1.476       .  S
C1359      C1497   1.480       .  S
C1360      C1455   1.488       .  S
C1361      C1438   1.489       .  S
C1362      C1721   1.497       .  S
Zn1363     O1367   1.936       .  S
Zn1363     O1368   2.034       .  S
Zn1363     O1372   2.021       .  S
Zn1363     O1379   1.984       .  S
Zn1364     O1369   1.987   1_556  S
Zn1364     O1375   1.968       .  S
Zn1365     O1367   1.936       .  S
Zn1365     O1370   2.018       .  S
Zn1365     O1373   2.017       .  S
Zn1365     O1376   2.012       .  S
Zn1366     O1377   2.059   1_554  S
O1368      C1380   1.275       .  A
O1370      C1382   1.274       .  A
O1371      C1380   1.271       .  A
O1372      C1382   1.276       .  A
O1373      C1381   1.274       .  A
O1374      C1383   1.274       .  A
O1375      C1384   1.270       .  A
O1376      C1383   1.274       .  A
O1377      C1384   1.280       .  A
O1378      C1385   1.281       .  A
O1379      C1385   1.269       .  A
C1380      C1651   1.486       .  S
C1381      C1578   1.470       .  S
C1382      C1424   1.475       .  S
C1383      C1637   1.484       .  S
C1384      C1410   1.484       .  S
C1385      C1483   1.486       .  S
Zn1386     O1390   1.956       .  S
Zn1386     O1391   2.020       .  S
Zn1386     O1395   2.073       .  S
Zn1386     O1402   2.060       .  S
Zn1387     O1390   1.945       .  S
Zn1387     O1392   2.030       .  S
Zn1387     O1394   2.035       .  S
Zn1387     O1398   2.034       .  S
Zn1388     O1390   1.936       .  S
Zn1388     O1393   1.991       .  S
Zn1388     O1396   1.999       .  S
Zn1388     O1399   2.030       .  S
Zn1389     O1390   1.925       .  S
Zn1389     O1397   1.999       .  S
Zn1389     O1400   1.997       .  S
Zn1389     O1401   1.977       .  S
O1391      C1403   1.275       .  A
O1392      C1404   1.277       .  A
O1393      C1405   1.270       .  A
O1394      C1403   1.277       .  A
O1395      C1405   1.280       .  A
O1396      C1404   1.273       .  A
O1397      C1406   1.272       .  A
O1398      C1407   1.273       .  A
O1399      C1406   1.276       .  A
O1400      C1407   1.271       .  A
O1401      C1408   1.270       .  A
O1402      C1408   1.281       .  A
C1403      C1676   1.483       .  S
C1404      C1413   1.466       .  S
C1405      C1441   1.490       .  S
C1406      C1662   1.479       .  S
C1407      C1553   1.480       .  S
C1408      C1427   1.472       .  S
C1409      C1410   1.410       .  A
C1409      C1414   1.403       .  A
C1409      H1416   1.084       .  S
C1410      C1411   1.412       .  A
C1411      C1412   1.404       .  A
C1411      N1418   1.435       .  S
C1412      C1413   1.403       .  A
C1412      H1417   1.084       .  S
C1413      C1414   1.410       .  A
C1414      N1415   1.444       .  S
N1415      O1419   1.263       .  A
N1415      O1420   1.263       .  A
N1418      O1421   1.263       .  A
N1418      O1422   1.262       .  A
C1423      C1424   1.400       .  A
C1423      C1428   1.401       .  A
C1423      H1430   1.084       .  S
C1424      C1425   1.423       .  A
C1425      C1426   1.407       .  A
C1425      N1432   1.444       .  S
C1426      C1427   1.399       .  A
C1426      H1431   1.084       .  S
C1427      C1428   1.416       .  A
C1428      N1429   1.440       .  S
N1429      O1433   1.263       .  A
N1429      O1434   1.262       .  A
N1432      O1435   1.261       .  A
N1432      O1436   1.263       .  A
C1437      C1438   1.411       .  A
C1437      C1442   1.408       .  A
C1437      H1444   1.084       .  S
C1438      C1439   1.407       .  A
C1439      C1440   1.406       .  A
C1439      N1446   1.431       .  S
C1440      C1441   1.411       .  A
C1440      H1445   1.084       .  S
C1441      C1442   1.413       .  A
C1442      N1443   1.436       .  S
N1443      O1447   1.263       .  A
N1443      O1448   1.262       .  A
N1446      O1449   1.262       .  A
N1446      O1450   1.262       .  A
C1451      C1456   1.394       .  A
C1453      C1454   1.411       .  A
C1453      N1460   1.445       .  S
C1454      C1455   1.415       .  A
C1454      H1459   1.083       .  S
C1455      C1456   1.406       .  A
C1456      N1457   1.430       .  S
N1457      O1461   1.262       .  A
N1457      O1462   1.262       .  A
N1460      O1464   1.263       .  A
C1465      C1466   1.398       .  A
C1465      C1470   1.401       .  A
C1465      H1472   1.082       .  S
C1466      C1467   1.415       .  A
C1467      C1468   1.402       .  A
C1467      N1474   1.441       .  S
C1468      C1469   1.406       .  A
C1468      H1473   1.083       .  S
C1469      C1470   1.421       .  A
C1470      N1471   1.435       .  S
N1471      O1475   1.262       .  A
N1471      O1476   1.263       .  A
N1474      O1477   1.263       .  A
N1474      O1478   1.263       .  A
C1479      C1480   1.398       .  A
C1479      C1484   1.406       .  A
C1479      H1486   1.084       .  S
C1480      C1481   1.415       .  A
C1481      C1482   1.400       .  A
C1481      N1488   1.428       .  S
C1482      C1483   1.396       .  A
C1482      H1487   1.084       .  S
C1483      C1484   1.427       .  A
C1484      N1485   1.436       .  S
N1485      O1489   1.263       .  A
N1485      O1490   1.259       .  A
N1488      O1491   1.263       .  A
N1488      O1492   1.263       .  A
C1493      C1494   1.402       .  A
C1493      C1498   1.406   1_655  A
C1493      H1500   1.084       .  S
C1494      C1495   1.413       .  A
C1495      C1496   1.398   1_655  A
C1495      N1502   1.439       .  S
C1496      C1497   1.405       .  A
C1496      H1501   1.084       .  S
C1497      C1498   1.416       .  A
C1498      N1499   1.437       .  S
N1499      O1503   1.263       .  A
N1499      O1504   1.263       .  A
N1502      O1505   1.262       .  A
N1502      O1506   1.263       .  A
C1507      C1508   1.406       .  A
C1507      C1512   1.400   1_655  A
C1507      H1514   1.084       .  S
C1508      C1509   1.415       .  A
C1509      C1510   1.399   1_655  A
C1509      N1516   1.430       .  S
C1510      C1511   1.402       .  A
C1510      H1515   1.084       .  S
C1511      C1512   1.415       .  A
C1512      N1513   1.432       .  S
N1513      O1517   1.262       .  A
N1513      O1518   1.262       .  A
N1516      O1519   1.262       .  A
N1516      O1520   1.262       .  A
C1521      C1522   1.413       .  A
C1521      C1526   1.406       .  A
C1521      H1528   1.083       .  S
C1522      C1523   1.408       .  A
C1523      C1524   1.396       .  A
C1523      N1530   1.434       .  S
C1526      N1527   1.440       .  S
N1527      O1531   1.263       .  A
N1530      O1533   1.262       .  A
N1530      O1534   1.262       .  A
C1535      C1536   1.403       .  A
C1535      C1540   1.402       .  A
C1535      H1542   1.085       .  S
C1536      C1537   1.410       .  A
C1537      C1538   1.404       .  A
C1537      N1544   1.443       .  S
C1538      C1539   1.411       .  A
C1538      H1543   1.083       .  S
C1539      C1540   1.413       .  A
C1540      N1541   1.432       .  S
N1541      O1545   1.262       .  A
N1541      O1546   1.262       .  A
N1544      O1547   1.263       .  A
N1544      O1548   1.263       .  A
C1549      C1550   1.403       .  A
C1549      C1554   1.405       .  A
C1549      H1556   1.084       .  S
C1550      C1551   1.416       .  A
C1551      C1552   1.402       .  A
C1551      N1558   1.440       .  S
C1552      C1553   1.404       .  A
C1552      H1557   1.084       .  S
C1553      C1554   1.414       .  A
C1554      N1555   1.434       .  S
N1555      O1559   1.262       .  A
N1555      O1560   1.262       .  A
N1558      O1561   1.263       .  A
N1558      O1562   1.263       .  A
C1563      C1564   1.412       .  A
C1563      C1568   1.407       .  A
C1563      H1570   1.084       .  S
C1564      C1565   1.412       .  A
C1565      C1566   1.406       .  A
C1565      N1572   1.437       .  S
C1566      C1567   1.412       .  A
C1566      H1571   1.084       .  S
C1567      C1568   1.412       .  A
C1568      N1569   1.438       .  S
N1569      O1573   1.263       .  A
N1569      O1574   1.263       .  A
N1572      O1575   1.263       .  A
N1572      O1576   1.262       .  A
C1577      C1578   1.402       .  A
C1577      C1582   1.402       .  A
C1577      H1584   1.084       .  S
C1579      C1580   1.398       .  A
C1579      N1586   1.435       .  S
C1580      H1585   1.084       .  S
C1581      C1582   1.414       .  A
C1582      N1583   1.438       .  S
N1583      O1587   1.263       .  A
N1583      O1588   1.263       .  A
N1586      O1589   1.262       .  A
N1586      O1590   1.262       .  A
C1591      C1592   1.404       .  A
C1591      C1596   1.403       .  A
C1591      H1598   1.085       .  S
C1592      C1593   1.409       .  A
C1593      C1594   1.400       .  A
C1593      N1600   1.439       .  S
C1594      C1595   1.413       .  A
C1594      H1599   1.083       .  S
C1595      C1596   1.414       .  A
C1596      N1597   1.432       .  S
N1597      O1601   1.262       .  A
N1597      O1602   1.262       .  A
N1600      O1603   1.262       .  A
N1600      O1604   1.263       .  A
C1605      C1606   1.412       .  A
C1605      C1610   1.400       .  A
C1605      H1612   1.083       .  S
C1606      C1607   1.412       .  A
C1607      C1608   1.400       .  A
C1607      N1614   1.432       .  S
C1608      C1609   1.402       .  A
C1608      H1613   1.081       .  S
C1609      C1610   1.408       .  A
C1610      N1611   1.437       .  S
N1611      O1615   1.263       .  A
N1611      O1616   1.261       .  A
N1614      O1617   1.262       .  A
N1614      O1618   1.263       .  A
C1619      C1620   1.400       .  A
C1619      C1624   1.411       .  A
C1619      H1626   1.083       .  S
C1620      C1621   1.413       .  A
C1621      C1622   1.396       .  A
C1621      N1628   1.420       .  S
C1622      C1623   1.393       .  A
C1622      H1627   1.084       .  S
C1623      C1624   1.423       .  A
C1624      N1625   1.439       .  S
N1625      O1629   1.262       .  A
N1625      O1630   1.263       .  A
N1628      O1631   1.262       .  A
N1628      O1632   1.262       .  A
C1633      C1634   1.404       .  A
C1633      H1640   1.084       .  S
C1634      C1635   1.415       .  A
C1635      C1636   1.404       .  A
C1635      N1642   1.437       .  S
C1636      H1641   1.084       .  S
C1637      C1638   1.416       .  A
C1638      N1639   1.437       .  S
N1639      O1643   1.263       .  A
N1639      O1644   1.263       .  A
N1642      O1645   1.263       .  A
N1642      O1646   1.263       .  A
C1647      C1652   1.403   1_545  A
C1647      H1654   1.084       .  S
C1648      C1649   1.410       .  A
C1649      C1650   1.400   1_545  A
C1649      N1656   1.432       .  S
C1650      H1655   1.084       .  S
C1651      C1652   1.413       .  A
C1652      N1653   1.432       .  S
N1653      O1657   1.262   1_565  A
N1653      O1658   1.262       .  A
N1656      O1659   1.262       .  A
N1656      O1660   1.262       .  A
C1661      C1662   1.403       .  A
C1661      C1666   1.405       .  A
C1661      H1668   1.084       .  S
C1662      C1663   1.415       .  A
C1663      C1664   1.403       .  A
C1663      N1670   1.440       .  S
C1664      C1665   1.405       .  A
C1664      H1669   1.084       .  S
C1665      C1666   1.417       .  A
C1666      N1667   1.438       .  S
N1667      O1671   1.263       .  A
N1667      O1672   1.263       .  A
N1670      O1673   1.263       .  A
N1670      O1674   1.263       .  A
C1675      C1676   1.405       .  A
C1675      C1680   1.407   1_565  A
C1675      H1682   1.084       .  S
C1676      C1677   1.416       .  A
C1677      C1678   1.404   1_565  A
C1677      N1684   1.439       .  S
C1678      C1679   1.403       .  A
C1678      H1683   1.084       .  S
C1679      C1680   1.416       .  A
C1680      N1681   1.441       .  S
N1681      O1685   1.263       .  A
N1681      O1686   1.263       .  A
N1684      O1687   1.263       .  A
N1684      O1688   1.263       .  A
C1689      C1690   1.397       .  A
C1689      C1694   1.396       .  A
C1689      H1696   1.085       .  S
C1690      C1691   1.421       .  A
C1691      C1692   1.406       .  A
C1691      N1698   1.442       .  S
C1692      C1693   1.403       .  A
C1692      H1697   1.083       .  S
C1693      C1694   1.419       .  A
C1694      N1695   1.430       .  S
N1695      O1699   1.262       .  A
N1695      O1700   1.262       .  A
N1698      O1701   1.261       .  A
N1698      O1702   1.263       .  A
C1703      C1704   1.402       .  A
C1703      C1708   1.409       .  A
C1703      H1710   1.083       .  S
C1704      C1705   1.414       .  A
C1705      C1706   1.396       .  A
C1705      N1712   1.432       .  S
C1706      C1707   1.397       .  A
C1706      H1711   1.085       .  S
C1707      C1708   1.423       .  A
C1708      N1709   1.450       .  S
N1709      O1713   1.263       .  A
N1709      O1714   1.262       .  A
N1712      O1715   1.262       .  A
N1712      O1716   1.262       .  A
C1717      C1718   1.402       .  A
C1717      C1722   1.405       .  A
C1717      H1724   1.084       .  S
C1718      C1719   1.412       .  A
C1719      C1720   1.407       .  A
C1719      N1726   1.443       .  S
C1720      C1721   1.412       .  A
C1720      H1725   1.083       .  S
C1721      C1722   1.418       .  A
C1722      N1723   1.433       .  S
N1723      O1727   1.262       .  A
N1723      O1728   1.262       .  A
N1726      O1729   1.262       .  A
N1726      O1730   1.263       .  A
C1731      C1732   1.400       .  A
C1731      C1736   1.400   1_545  A
C1731      H1738   1.084       .  S
C1732      C1733   1.417       .  A
C1733      C1734   1.407   1_545  A
C1733      N1740   1.441       .  S
C1734      C1735   1.403       .  A
C1734      H1739   1.084       .  S
C1735      C1736   1.415       .  A
C1736      N1737   1.440       .  S
N1737      O1741   1.263       .  A
N1737      O1742   1.263       .  A
N1740      O1743   1.262       .  A
N1740      O1744   1.263       .  A
C1745      C1746   1.400       .  A
C1745      C1750   1.415       .  A
C1745      H1752   1.083       .  S
C1746      C1747   1.413       .  A
C1747      C1748   1.398       .  A
C1747      N1754   1.427       .  S
C1748      C1749   1.395       .  A
C1748      H1753   1.084       .  S
C1749      C1750   1.426       .  A
C1750      N1751   1.449       .  S
N1751      O1755   1.263       .  A
N1751      O1756   1.262       .  A
N1754      O1757   1.262       .  A
N1754      O1758   1.262       .  A
C1759      C1760   1.403       .  A
C1759      C1764   1.396       .  A
C1759      H1766   1.084       .  S
C1760      C1761   1.415       .  A
C1761      C1762   1.400       .  A
C1761      N1768   1.429       .  S
C1762      C1763   1.402       .  A
C1762      H1767   1.084       .  S
C1763      C1764   1.414       .  A
C1764      N1765   1.430       .  S
N1765      O1769   1.262       .  A
N1765      O1770   1.262       .  A
N1768      O1771   1.262       .  A
N1768      O1772   1.262       .  A
C1773      C1774   1.403       .  A
C1773      C1778   1.402   1_545  A
C1773      H1780   1.084       .  S
C1774      C1775   1.421       .  A
C1775      C1776   1.400   1_545  A
C1775      N1782   1.432       .  S
C1776      C1777   1.403       .  A
C1776      H1781   1.084       .  S
C1777      C1778   1.421       .  A
C1778      N1779   1.433       .  S
N1779      O1783   1.262       .  A
N1779      O1784   1.262       .  A
N1782      O1785   1.262       .  A
N1782      O1786   1.262       .  A
C1787      C1788   1.408       .  A
C1787      C1792   1.401       .  A
C1787      H1794   1.084       .  S
C1788      C1789   1.413       .  A
C1789      C1790   1.405       .  A
C1789      N1796   1.437       .  S
C1790      C1791   1.406       .  A
C1790      H1795   1.084       .  S
C1791      C1792   1.412       .  A
C1792      N1793   1.439       .  S
N1793      O1797   1.263       .  A
N1793      O1798   1.262       .  A
N1796      O1799   1.262       .  A
N1796      O1800   1.262       .  A
C1801      C1806   1.397       .  A
C1803      C1804   1.407       .  A
C1804      C1805   1.414       .  A
C1804      H1809   1.083       .  S
C1805      C1806   1.410       .  A
C1806      N1807   1.430       .  S
N1807      O1811   1.262       .  A
N1807      O1812   1.262       .  A
N1810      O1813   1.262       .  A
C1815      C1816   1.406       .  A
C1815      C1820   1.412       .  A
C1815      H1822   1.083       .  S
C1816      C1817   1.427       .  A
C1817      C1818   1.402       .  A
C1817      N1824   1.434       .  S
C1818      C1819   1.395       .  A
C1818      H1823   1.084       .  S
C1819      C1820   1.420       .  A
C1820      N1821   1.445       .  S
N1821      O1825   1.263       .  A
N1821      O1826   1.263       .  A
N1824      O1827   1.262       .  A
N1824      O1828   1.262       .  A
C1829      C1830   1.397       .  A
C1829      C1834   1.399       .  A
C1829      H1836   1.084       .  S
C1830      C1831   1.417       .  A
C1831      C1832   1.409       .  A
C1831      N1838   1.443       .  S
C1832      C1833   1.405       .  A
C1832      H1837   1.083       .  S
C1833      C1834   1.418       .  A
C1834      N1835   1.438       .  S
N1835      O1839   1.263       .  A
N1835      O1840   1.263       .  A
N1838      O1841   1.262       .  A
N1838      O1842   1.263       .  A
C1843      C1844   1.405       .  A
C1843      C1848   1.409   1_545  A
C1843      H1850   1.084       .  S
C1844      C1845   1.412       .  A
C1845      C1846   1.401   1_545  A
C1845      N1852   1.431       .  S
C1846      C1847   1.405       .  A
C1846      H1851   1.084       .  S
C1847      C1848   1.418       .  A
C1848      N1849   1.438       .  S
N1849      O1853   1.263       .  A
N1849      O1854   1.263       .  A
N1852      O1855   1.262       .  A
N1852      O1856   1.262       .  A
C1857      C1858   1.403       .  A
C1857      C1862   1.402   1_655  A
C1857      H1864   1.084       .  S
C1858      C1859   1.416       .  A
C1859      C1860   1.407   1_655  A
C1859      N1866   1.438       .  S
C1860      C1861   1.405       .  A
C1860      H1865   1.084       .  S
C1861      C1862   1.416       .  A
C1862      N1863   1.440       .  S
N1863      O1867   1.263       .  A
N1863      O1868   1.263       .  A
N1866      O1869   1.261       .  A
N1866      O1870   1.263       .  A
C1871      C1872   1.408       .  A
C1871      C1876   1.404       .  A
C1871      H1878   1.084       .  S
C1872      C1873   1.414       .  A
C1873      C1874   1.404       .  A
C1873      N1880   1.432       .  S
C1874      C1875   1.409       .  A
C1874      H1879   1.084       .  S
C1875      C1876   1.415       .  A
C1876      N1877   1.432       .  S
N1877      O1881   1.262       .  A
N1877      O1882   1.262       .  A
N1880      O1883   1.262       .  A
N1880      O1884   1.262       .  A
C1885      C1886   1.403       .  A
C1885      C1890   1.405   1_545  A
C1885      H1892   1.084       .  S
C1886      C1887   1.414       .  A
C1887      C1888   1.403   1_545  A
C1887      N1894   1.442       .  S
C1888      C1889   1.403       .  A
C1888      H1893   1.084       .  S
C1889      C1890   1.415       .  A
C1890      N1891   1.441       .  S
N1891      O1895   1.263       .  A
N1891      O1896   1.263       .  A
N1894      O1897   1.263       .  A
N1894      O1898   1.263       .  A
C1899      C1900   1.403       .  A
C1899      C1904   1.401   1_655  A
C1899      H1906   1.084       .  S
C1900      C1901   1.416       .  A
C1901      C1902   1.407   1_655  A
C1901      N1908   1.439       .  S
C1902      C1903   1.403       .  A
C1902      H1907   1.084       .  S
C1903      C1904   1.416       .  A
C1904      N1905   1.441       .  S
N1905      O1909   1.263       .  A
N1905      O1910   1.263       .  A
N1908      O1911   1.263       .  A
N1908      O1912   1.263       .  A
C1913      C1914   1.397       .  A
C1913      C1918   1.399       .  A
C1913      H1920   1.084       .  S
C1914      C1915   1.415       .  A
C1915      C1916   1.403       .  A
C1915      N1922   1.437       .  S
C1916      C1917   1.402       .  A
C1916      H1921   1.083       .  S
C1917      C1918   1.421       .  A
C1918      N1919   1.431       .  S
N1919      O1923   1.262       .  A
N1919      O1924   1.262       .  A
N1922      O1925   1.261       .  A
N1922      O1926   1.263       .  A
C1927      C1932   1.405       .  A
C1929      C1930   1.403       .  A
C1930      C1931   1.406       .  A
C1930      H1935   1.084       .  S
C1931      C1932   1.414       .  A
C1932      N1933   1.441       .  S
N1933      O1937   1.263       .  A
N1933      O1938   1.263       .  A
N1936      O1939   1.262       .  A
C1941      C1946   1.402       .  A
C1941      H1948   1.084       .  S
C1942      C1943   1.413       .  A
C1943      C1944   1.401       .  A
C1943      N1950   1.432       .  S
C1944      H1949   1.084       .  S
C1945      C1946   1.414       .  A
C1946      N1947   1.432       .  S
N1947      O1951   1.262       .  A
N1947      O1952   1.262       .  A
N1950      O1953   1.262       .  A
N1950      O1954   1.262       .  A
C1955      C1956   1.402       .  A
C1955      H1962   1.084       .  S
C1956      C1957   1.415       .  A
C1957      N1964   1.440       .  S
C1958      C1959   1.404       .  A
C1958      H1963   1.084       .  S
C1959      C1960   1.417       .  A
C1960      N1961   1.439       .  S
N1961      O1966   1.263       .  A
N1964      O1967   1.263       .  A
C1969      C1970   1.405       .  A
C1969      C1974   1.408       .  A
C1969      H1976   1.084       .  S
C1971      C1972   1.399       .  A
C1971      N1978   1.438       .  S
C1972      H1977   1.085       .  S
C1973      C1974   1.416       .  A
C1974      N1975   1.438       .  S
N1975      O1979   1.263       .  A
N1975      O1980   1.262       .  A
N1978      O1981   1.263       .  A
N1978      O1982   1.263       .  A
C1983      C1984   1.410       .  A
C1983      C1988   1.409       .  A
C1983      H1990   1.083       .  S
C1984      C1985   1.412       .  A
C1985      C1986   1.407       .  A
C1985      N1992   1.439       .  S
C1986      C1987   1.411       .  A
C1986      H1991   1.084       .  S
C1987      C1988   1.413       .  A
C1988      N1989   1.440       .  S
N1989      O1993   1.263       .  A
N1989      O1994   1.263       .  A
C1997      C1998   1.402       .  A
C1997      C2002   1.402       .  A
C1997      H2004   1.084       .  S
C1998      C1999   1.416       .  A
C1999      C2000   1.404       .  A
C1999      N2006   1.438       .  S
C2000      C2001   1.404       .  A
C2000      H2005   1.084       .  S
C2001      C2002   1.413       .  A
C2002      N2003   1.433       .  S
N2003      O2007   1.262       .  A
N2003      O2008   1.262       .  A
N2006      O2009   1.262       .  A
N2006      O2010   1.263       .  A
C2011      C2012   1.403       .  A
C2011      C2016   1.405   1_565  A
C2011      H2018   1.084       .  S
C2012      C2013   1.416       .  A
C2013      C2014   1.402   1_565  A
C2013      N2020   1.438       .  S
C2014      C2015   1.405       .  A
C2014      H2019   1.084       .  S
C2015      C2016   1.418       .  A
C2016      N2017   1.437       .  S
N2017      O2021   1.263       .  A
N2017      O2022   1.263       .  A
N2020      O2023   1.263       .  A
N2020      O2024   1.263       .  A
C2025      C2026   1.406       .  A
C2025      C2030   1.403       .  A
C2025      H2032   1.084       .  S
C2026      C2027   1.415       .  A
C2027      C2028   1.404       .  A
C2027      N2034   1.433       .  S
C2028      C2029   1.402       .  A
C2028      H2033   1.084       .  S
C2029      C2030   1.415       .  A
C2030      N2031   1.442       .  S
N2031      O2035   1.263       .  A
N2031      O2036   1.263       .  A
N2034      O2037   1.262       .  A
N2034      O2038   1.262       .  A
C2039      C2040   1.400       .  A
C2039      C2044   1.402       .  A
C2039      H2046   1.084       .  S
C2040      C2041   1.415       .  A
C2041      C2042   1.400       .  A
C2041      N2048   1.438       .  S
C2042      C2043   1.405       .  A
C2042      H2047   1.083       .  S
C2043      C2044   1.420       .  A
C2044      N2045   1.434       .  S
N2045      O2049   1.262       .  A
N2045      O2050   1.262       .  A
N2048      O2051   1.263       .  A
N2048      O2052   1.263       .  A
C2053      C2054   1.399       .  A
C2053      C2058   1.404       .  A
C2053      H2060   1.084       .  S
C2054      C2055   1.413       .  A
C2055      C2056   1.402       .  A
C2055      N2062   1.434       .  S
C2056      C2057   1.399       .  A
C2056      H2061   1.084       .  S
C2057      C2058   1.419       .  A
C2058      N2059   1.440       .  S
N2059      O2063   1.263       .  A
N2059      O2064   1.262       .  A
N2062      O2065   1.262       .  A
N2062      O2066   1.263       .  A
C2067      C2068   1.402       .  A
C2067      C2072   1.411       .  A
C2067      H2074   1.083       .  S
C2068      C2069   1.420       .  A
C2069      C2070   1.406       .  A
C2069      N2076   1.448       .  S
C2070      C2071   1.399       .  A
C2070      H2075   1.084       .  S
C2071      C2072   1.424       .  A
C2072      N2073   1.450       .  S
N2073      O2077   1.263       .  A
N2073      O2078   1.262       .  A
N2076      O2079   1.261       .  A
N2076      O2080   1.263       .  A
