geometry optimzed in LAMMPS
_audit_creation_date              2020-11-30 
_audit_creation_method            'lammps2cif' 
_symmetry_space_group_name_H-M    'P1' 
_symmetry_Int_Tables_number       1 
_symmetry_cell_setting            triclinic 
loop_ 
_symmetry_equiv_pos_as_xyz 
  x,y,z 
_cell_length_a                    36.85127803 
_cell_length_b                    37.20300801913409 
_cell_length_c                    44.26401653612343 
_cell_angle_alpha                 90.26819916713167 
_cell_angle_beta                  89.64679016347029 
_cell_angle_gamma                 119.82252461019314 
loop_ 
_atom_site_label 
_atom_site_type_symbol 
_atom_site_fract_x 
_atom_site_fract_y 
_atom_site_fract_z 
_atom_site_charge 
Fe1        Fe  0.68395673  0.84074424  0.12697274     1.65800
Fe2        Fe  0.59211504  0.79120082  0.16452449     1.73200
Fe3        Fe  0.59423866  0.80628612  0.08857745     1.54400
O4          O  0.62878500  0.86880395  0.07931360    -0.81300
O5          O  0.54577754  0.73795863  0.14449001    -0.79600
O6          O  0.69180640  0.87997511  0.09152555    -0.83800
O7          O  0.68379065  0.79811806  0.09686224    -0.78700
O8          O  0.54952162  0.81707683  0.10790949    -0.80400
O9          O  0.62285748  0.75903875  0.17505367    -0.83200
C10         C  0.66630662  0.78912270  0.07108742     0.97600
C11         C  0.66827079  0.89004150  0.07762704     1.05000
O12         O  0.62307742  0.81244545  0.12670344    -1.12200
O13         O  0.63536282  0.84240067  0.18902573    -0.74600
O14         O  0.68585432  0.88426035  0.15694362    -0.78100
O15         O  0.63618450  0.79506534  0.06426501    -0.78800
C16         C  0.66711755  0.87710444  0.18230981     0.96500
O17         O  0.68740287  0.80697367  0.16259058    -0.76700
O18         O  0.55767358  0.82071182  0.15791457    -0.81900
C19         C  0.53696432  0.72280054  0.11798537     0.99100
C20         C  0.54044345  0.82415341  0.13416790     1.05000
O21         O  0.55611866  0.74319530  0.09455430    -0.77600
C22         C  0.66215162  0.77484097  0.17714686     1.03300
Fe23       Fe  0.14948765  0.83954139  0.12707905     1.65800
Fe24       Fe  0.19753328  0.79312531  0.16202135     1.73200
Fe25       Fe  0.19935165  0.80052842  0.08492812     1.54400
O26         O  0.14243268  0.78504178  0.06518492    -0.81300
O27         O  0.25911063  0.81701184  0.14905899    -0.79600
O28         O  0.10394871  0.79586589  0.09928695    -0.83800
O29         O  0.17910536  0.87809331  0.09055872    -0.78700
O30         O  0.17624645  0.73849503  0.09425009    -0.80400
O31         O  0.21555685  0.84952096  0.18333517    -0.83200
C32         C  0.20916258  0.88501816  0.07294821     0.97600
C33         C  0.10798186  0.78151340  0.07419360     1.05000
O34         O  0.18231379  0.81105292  0.12476978    -1.12200
O35         O  0.13773436  0.76609764  0.18042484    -0.74600
O36         O  0.11435883  0.80700195  0.16383088    -0.78100
O37         O  0.22467037  0.86135419  0.07153444    -0.78800
C38         C  0.11158950  0.77878945  0.18110561     0.96500
O39         O  0.19225315  0.88425488  0.15573135    -0.76700
O40         O  0.18173987  0.73553891  0.14431554    -0.81900
C41         C  0.27727041  0.82117042  0.12385695     0.99100
C42         C  0.17359530  0.71876230  0.11827437     1.05000
O43         O  0.25846628  0.81475400  0.09881951    -0.77600
C44         C  0.21298967  0.88174371  0.17771003     1.03300
Fe45       Fe  0.15990697  0.31511732  0.12574529     1.65800
Fe46       Fe  0.19627875  0.40522948  0.08546945     1.73200
Fe47       Fe  0.19725991  0.40739095  0.16309022     1.54400
O48         O  0.13927771  0.36796613  0.18120792    -0.81300
O49         O  0.25682388  0.44827058  0.09788830    -0.79600
O50         O  0.11431551  0.30730087  0.15713633    -0.83800
O51         O  0.19902408  0.31628279  0.15915589    -0.78700
O52         O  0.17348444  0.44397065  0.14904821    -0.80400
O53         O  0.21968784  0.37015307  0.06551928    -0.83200
C54         C  0.22103167  0.34120008  0.17970610     0.97600
C55         C  0.11121744  0.33059275  0.17691616     1.05000
O56         O  0.18440344  0.37595409  0.12477851    -1.12200
O57         O  0.13701966  0.36567699  0.06914184    -0.74600
O58         O  0.11793005  0.30499131  0.09122627    -0.78100
O59         O  0.22332235  0.37594485  0.18383116    -0.78800
C60         C  0.11226547  0.32703662  0.07205751     0.96500
O61         O  0.20320938  0.31633618  0.09563458    -0.76700
O62         O  0.17503115  0.44500770  0.09887762    -0.81900
C63         C  0.27471424  0.46282159  0.12306994     0.99100
C64         C  0.16818089  0.45696760  0.12405028     1.05000
O65         O  0.25632993  0.45027288  0.14839867    -0.77600
C66         C  0.22174905  0.33821658  0.07274498     1.03300
Fe67       Fe  0.83537772  0.68148499  0.37469105     1.65800
Fe68       Fe  0.78847776  0.58626934  0.34017423     1.73200
Fe69       Fe  0.79302320  0.59267013  0.41725434     1.54400
O70         O  0.85099733  0.63292231  0.43471999    -0.81300
O71         O  0.72810369  0.54889566  0.35538421    -0.79600
O72         O  0.88109877  0.68857130  0.40501339    -0.83800
O73         O  0.79974245  0.68773979  0.40887024    -0.78700
O74         O  0.81523001  0.55357148  0.40535887    -0.80400
O75         O  0.76761484  0.62206148  0.31922942    -0.83200
C76         C  0.77631280  0.66456829  0.42996232     0.97600
C77         C  0.88155683  0.66795801  0.42762399     1.05000
O78         O  0.80560585  0.62020409  0.37738437    -1.12200
O79         O  0.84726863  0.61964120  0.32094012    -0.74600
O80         O  0.87455726  0.68333744  0.34021499    -0.78100
O81         O  0.76964708  0.62819386  0.43438616    -0.78800
C82         C  0.87598774  0.65726075  0.32231176     0.96500
O83         O  0.79414515  0.68227817  0.34374394    -0.76700
O84         O  0.80605287  0.54498386  0.35566047    -0.81900
C85         C  0.71209709  0.53573384  0.38127160     0.99100
C86         C  0.81580214  0.53614909  0.38085744     1.05000
O87         O  0.73282182  0.54864332  0.40554163    -0.77600
C88         C  0.77155500  0.65757939  0.32315100     1.03300
Fe89       Fe  0.83697224  0.14986075  0.37656326     1.65800
Fe90       Fe  0.79451879  0.20182754  0.41272211     1.73200
Fe91       Fe  0.79532489  0.19842347  0.33591810     1.54400
O92         O  0.85635301  0.22393689  0.32105676    -0.81300
O93         O  0.73599184  0.18678167  0.39717382    -0.79600
O94         O  0.87575201  0.18063252  0.34013898    -0.83800
O95         O  0.79373319  0.10490916  0.34786079    -0.78700
O96         O  0.80821434  0.25657883  0.34911383    -0.80400
O97         O  0.76726264  0.14369656  0.43188556    -0.83200
C98         C  0.77923860  0.10944598  0.32311249     0.97600
C99         C  0.88117558  0.20955866  0.32224929     1.05000
O100        O  0.80898379  0.18338573  0.37516302    -1.12200
O101        O  0.85170405  0.21917080  0.43238161    -0.74600
O102        O  0.88293477  0.19085229  0.40578490    -0.78100
O103        O  0.78069070  0.14299184  0.31583537    -0.78800
C104        C  0.88261687  0.21383832  0.42704143     0.96500
O105        O  0.80243612  0.11443112  0.41288286    -0.76700
O106        O  0.81925629  0.26236776  0.39858967    -0.81900
C107        C  0.71595114  0.17530255  0.37248094     0.99100
C108        C  0.81844725  0.27760054  0.37323771     1.05000
O109        O  0.73284093  0.17432247  0.34755892    -0.77600
C110        C  0.77606917  0.11486283  0.43120336     1.03300
Fe111      Fe  0.30633608  0.15689241  0.37603712     1.65800
Fe112      Fe  0.40127153  0.19652064  0.41121736     1.73200
Fe113      Fe  0.39634700  0.19723165  0.33381559     1.54400
O114        O  0.35669749  0.13918323  0.31622760    -0.81300
O115        O  0.44116910  0.25699211  0.39799106    -0.79600
O116        O  0.29738999  0.11342027  0.34301309    -0.83800
O117        O  0.30278313  0.19594649  0.34458403    -0.78700
O118        O  0.43673021  0.17619736  0.34422436    -0.80400
O119        O  0.36635236  0.21765345  0.43449577    -0.83200
C120        C  0.32575931  0.21784705  0.32301708     0.97600
C121        C  0.31940532  0.11099067  0.32169714     1.05000
O122        O  0.36798610  0.18342589  0.37366838    -1.12200
O123        O  0.36510343  0.13751372  0.42799685    -0.74600
O124        O  0.30131341  0.11478490  0.40899820    -0.78100
O125        O  0.36052999  0.22054676  0.31660068    -0.78800
C126        C  0.32652206  0.11089558  0.42638865     0.96500
O127        O  0.30820468  0.19786423  0.40809698    -0.76700
O128        O  0.44156685  0.17769803  0.39424042    -0.81900
C129        C  0.45312496  0.27513186  0.37261661     0.99100
C130        C  0.45214101  0.17148954  0.36827922     1.05000
O131        O  0.43919711  0.25672032  0.34751005    -0.77600
C132        C  0.33243421  0.21760942  0.42967002     1.03300
C133        C  0.60528399  0.15557444  0.38769019     0.16300
C134        C  0.57020867  0.15442922  0.40096138    -0.32700
C135        C  0.54012039  0.15413956  0.38172867     0.20700
C136        C  0.54407620  0.15381243  0.35056694     0.02900
C137        C  0.57883188  0.15396588  0.33721271    -0.22400
C138        C  0.60963645  0.15543465  0.35654376     0.12100
S139        S  0.64720535  0.16115168  0.40741553    -0.06100
C140        C  0.67158345  0.16407296  0.37345087    -0.09600
C141        C  0.64765472  0.15990163  0.34816191    -0.26200
S142        S  0.50598388  0.15743866  0.33134617    -0.03400
C143        C  0.48526895  0.16045807  0.36573146    -0.16800
C144        C  0.50630256  0.15752273  0.39055176    -0.14800
H145        H  0.56751141  0.15580104  0.42526037     0.20600
H146        H  0.58266177  0.15494017  0.31290543     0.16600
H147        H  0.65832726  0.16229588  0.32502788     0.19100
H148        H  0.49875444  0.16022175  0.41383189     0.12500
C149        C  0.60260926  0.44416495  0.39722515     0.16300
C150        C  0.56802753  0.40942159  0.40987813    -0.32700
C151        C  0.53878045  0.37989404  0.38995965     0.20700
C152        C  0.54309245  0.38543190  0.35891368     0.02900
C153        C  0.57701913  0.42063188  0.34633482    -0.22400
C154        C  0.60689071  0.44943401  0.36616131     0.12100
S155        S  0.64431155  0.48064161  0.41719400    -0.06100
C156        C  0.66807193  0.50266160  0.38326128    -0.09600
C157        C  0.64414970  0.48313073  0.35802996    -0.26200
S158        S  0.50669519  0.34461131  0.33843669    -0.03400
C159        C  0.48584020  0.31914311  0.37196994    -0.16800
C160        C  0.50564903  0.34197530  0.39763279    -0.14800
H161        H  0.56520272  0.40455842  0.43407346     0.20600
H162        H  0.58109259  0.42433395  0.32208646     0.16600
H163        H  0.65444431  0.49168975  0.33488846     0.19100
H164        H  0.49767337  0.33061548  0.42056889     0.12500
C165        C  0.83463289  0.44537228  0.39539361     0.16300
C166        C  0.83688766  0.41212827  0.40810741    -0.32700
C167        C  0.83493556  0.38159609  0.38842755     0.20700
C168        C  0.83173749  0.38447004  0.35742744     0.02900
C169        C  0.83022338  0.41805647  0.34467562    -0.22400
C170        C  0.83129589  0.44811152  0.36440202     0.12100
S171        S  0.83236462  0.48336952  0.41559497    -0.06100
C172        C  0.82622813  0.50281731  0.38194688    -0.09600
C173        C  0.82670439  0.48114357  0.35652497    -0.26200
S174        S  0.82638934  0.34277946  0.33759893    -0.03400
C175        C  0.82782502  0.32083796  0.37146588    -0.16800
C176        C  0.83306950  0.34524260  0.39662759    -0.14800
H177        H  0.83842966  0.40934923  0.43233911     0.20600
H178        H  0.82667551  0.41982537  0.32055448     0.16600
H179        H  0.82203355  0.48805669  0.33361588     0.19100
H180        H  0.83328639  0.33598262  0.41974958     0.12500
C181        C  0.02449400  0.26233052  0.01584540     0.16300
C182        C  0.99666993  0.23224946  0.99557079    -0.29100
C183        C  0.97069650  0.24188777  0.47846896     0.20700
C184        C  0.97194190  0.27958861  0.48178593     0.02900
C185        C  0.00046098  0.31002842  0.50150885    -0.22400
C186        C  0.02682490  0.30061073  0.01828499     0.12100
S187        S  0.05808541  0.25640697  0.03897582    -0.06100
C188        C  0.07638658  0.30645908  0.05140774    -0.09600
C189        C  0.05693114  0.32627215  0.03839128    -0.26200
S190        S  0.93560545  0.28408142  0.46089461    -0.03400
C191        C  0.91926332  0.23511967  0.44688418    -0.16800
C192        C  0.94095846  0.21646917  0.45802191    -0.14800
H193        H  0.99510754  0.20245824  0.99339248     0.20600
H194        H  0.00175848  0.33967385  0.50389726     0.16600
H195        H  0.06454874  0.35783279  0.04330734     0.19100
H196        H  0.93409808  0.18530784  0.45243396     0.12500
C197        C  0.01872774  0.30356555  0.22999466     0.16300
C198        C  0.98818471  0.30397886  0.24879921    -0.32700
C199        C  0.96437114  0.26911608  0.26693732     0.20700
C200        C  0.97099285  0.23552840  0.26660371     0.02900
C201        C  0.00092469  0.23475073  0.24733784    -0.22400
C202        C  0.02439618  0.26939572  0.22893078     0.12100
S203        S  0.05254881  0.34381419  0.20771358    -0.06100
C204        C  0.07386278  0.31392277  0.19628776    -0.09600
C205        C  0.05560137  0.27490154  0.20919943    -0.26200
S206        S  0.93986017  0.19683650  0.29097575    -0.03400
C207        C  0.91692762  0.22572322  0.30124051    -0.16800
C208        C  0.93304304  0.26349511  0.28657471    -0.14800
H209        H  0.98349534  0.33050762  0.24949844     0.20600
H210        H  0.00593056  0.20841214  0.24689423     0.16600
H211        H  0.06586968  0.25255282  0.20537575     0.19100
H212        H  0.92233089  0.28556480  0.29003904     0.12500
C213        C  0.27968677  0.29650252  0.22195131     0.16300
C214        C  0.30014881  0.27491527  0.23028513    -0.32700
C215        C  0.30135483  0.26709439  0.26107217     0.20700
C216        C  0.28298856  0.28010400  0.28272077     0.02900
C217        C  0.26378539  0.30305109  0.27446687    -0.22400
C218        C  0.26258480  0.31091481  0.24358901     0.12100
S219        S  0.27080132  0.30478954  0.18556690    -0.06100
C220        C  0.24439689  0.32858281  0.19957004    -0.09600
C221        C  0.24297669  0.33023860  0.23081876    -0.26200
S222        S  0.28483559  0.26425089  0.31862200    -0.03400
C223        C  0.31147079  0.24079904  0.30423968    -0.16800
C224        C  0.31832599  0.24512982  0.27335633    -0.14800
H225        H  0.31337078  0.26351437  0.21341212     0.20600
H226        H  0.24928818  0.31319532  0.29125212     0.16600
H227        H  0.22633175  0.34262120  0.24340239     0.19100
H228        H  0.33390634  0.23186614  0.26047183     0.12500
C229        C  0.29266119  0.28183065  0.47127075     0.16300
C230        C  0.27350214  0.30493100  0.47936944    -0.32700
C231        C  0.26881596  0.31023868  0.01023217     0.20700
C232        C  0.28274400  0.29339300  0.03209901     0.02900
C233        C  0.30330346  0.27154104  0.02399209    -0.22400
C234        C  0.30783866  0.26608198  0.49307674     0.12100
S235        S  0.29722111  0.26840557  0.43515373    -0.06100
C236        C  0.32051143  0.24190026  0.44943127    -0.09600
C237        C  0.32464384  0.24368104  0.48059646    -0.26200
S238        S  0.26990762  0.29932865  0.06818843    -0.03400
C239        C  0.24603175  0.32523149  0.05366377    -0.16800
C240        C  0.24841916  0.32926523  0.02251208    -0.14800
H241        H  0.26138150  0.31695412  0.46234064     0.20600
H242        H  0.31391748  0.25808812  0.04102400     0.16600
H243        H  0.33749829  0.22792846  0.49343904     0.19100
H244        H  0.23400825  0.34335507  0.00946692     0.12500
C245        C  0.23570410  0.97651638  0.02010164     0.16300
C246        C  0.23502730  0.00708639  0.50208196    -0.32700
C247        C  0.26811722  0.02833533  0.48158819     0.20700
C248        C  0.30089999  0.02015059  0.47960143     0.02900
C249        C  0.30130075  0.98922995  0.99735136    -0.22400
C250        C  0.26782724  0.96746204  0.01743581     0.12100
S251        S  0.19820367  0.94685941  0.04597503    -0.06100
C252        C  0.22548394  0.92118461  0.05272974    -0.09600
C253        C  0.26203987  0.93559125  0.03599474    -0.26200
S254        S  0.33940099  0.05111990  0.45475520    -0.03400
C255        C  0.31050404  0.07459487  0.44633646    -0.16800
C256        C  0.27315958  0.05917559  0.46218602    -0.14800
H257        H  0.20975466  0.01392520  0.50389594     0.20600
H258        H  0.32661657  0.98244848  0.99559301     0.16600
H259        H  0.28295353  0.92303225  0.03703852     0.19100
H260        H  0.25171719  0.07104479  0.46046615     0.12500
C261        C  0.25651218  0.01923508  0.26851226     0.16300
C262        C  0.22594387  0.98887214  0.24991628    -0.32700
C263        C  0.23780175  0.96576045  0.23143391     0.20700
C264        C  0.27812130  0.97185947  0.23184544     0.02900
C265        C  0.30903244  0.00292199  0.25001751    -0.22400
C266        C  0.29731618  0.02666401  0.26811072     0.12100
S267        S  0.24803972  0.05026064  0.29262740    -0.06100
C268        C  0.30029612  0.07452982  0.30167991    -0.09600
C269        C  0.32280443  0.05884749  0.28686357    -0.26200
S270        S  0.28518610  0.93847165  0.20908573    -0.03400
C271        C  0.23368832  0.91724188  0.19831690    -0.16800
C272        C  0.21240339  0.93494365  0.21186848    -0.14800
H273        H  0.19421626  0.98346251  0.24987027     0.20600
H274        H  0.34073798  0.00827561  0.25010898     0.16600
H275        H  0.35599767  0.07046456  0.28962665     0.19100
H276        H  0.17967127  0.92489454  0.20823519     0.12500
C277        C  0.02467100  0.75267750  0.23910948     0.16300
C278        C  0.99598515  0.75409138  0.25921063    -0.32700
C279        C  0.96724116  0.71719203  0.27341450     0.20700
C280        C  0.96664414  0.68022859  0.26765386     0.02900
C281        C  0.99610935  0.67897670  0.24797415    -0.22400
C282        C  0.02532266  0.71617957  0.23395058     0.12100
S283        S  0.06047417  0.79394992  0.21880167    -0.06100
C284        C  0.07747426  0.76227721  0.20349676    -0.09600
C285        C  0.05625421  0.72166119  0.21376161    -0.26200
S286        S  0.92730379  0.63845648  0.28593735    -0.03400
C287        C  0.91232487  0.67150090  0.30193581    -0.16800
C288        C  0.93661317  0.71250150  0.29331134    -0.14800
H289        H  0.99574893  0.78271971  0.26332154     0.20600
H290        H  0.99594529  0.65023408  0.24352379     0.16600
H291        H  0.06239757  0.69741203  0.20630898     0.19100
H292        H  0.93147145  0.73745533  0.30065035     0.12500
C293        C  0.98589904  0.72088463  0.47005219     0.16300
C294        C  0.02773894  0.74397815  0.47909025    -0.32700
C295        C  0.03639835  0.74412481  0.00991967     0.20700
C296        C  0.00485191  0.72264235  0.03092944     0.02900
C297        C  0.96317197  0.69860176  0.02177611    -0.22400
C298        C  0.95457321  0.69815115  0.49091456     0.12100
S299        S  0.96847188  0.71844055  0.43397111    -0.06100
C300        C  0.91864549  0.68552956  0.44707569    -0.09600
C301        C  0.91600830  0.67733643  0.47776726    -0.26200
S302        S  0.02153508  0.72942307  0.06753933    -0.03400
C303        C  0.07161499  0.76066911  0.05424022    -0.16800
C304        C  0.07489882  0.76542796  0.02315276    -0.14800
H305        H  0.05238899  0.76160661  0.46288945     0.20600
H306        H  0.93842891  0.68154441  0.03804791     0.16600
H307        H  0.88717792  0.65792509  0.48993548     0.19100
H308        H  0.10382939  0.78451258  0.01100139     0.12500
C309        C  0.15270604  0.60878240  0.10108014     0.16300
C310        C  0.15142054  0.57371792  0.08800454    -0.32700
C311        C  0.15033498  0.54357492  0.10755951     0.20700
C312        C  0.14909144  0.54754954  0.13866676     0.02900
C313        C  0.14949950  0.58209038  0.15167255    -0.22400
C314        C  0.15205932  0.61281560  0.13220645     0.12100
S315        S  0.15910779  0.65110676  0.08157158    -0.06100
C316        C  0.16206482  0.67481566  0.11578863    -0.09600
C317        C  0.15719998  0.65045464  0.14075916    -0.26200
S318        S  0.15182610  0.51001658  0.15867602    -0.03400
C319        C  0.15605737  0.48919826  0.12486951    -0.16800
C320        C  0.15396198  0.50981746  0.09945569    -0.14800
H321        H  0.15335244  0.57107493  0.06374869     0.20600
H322        H  0.15002160  0.58587766  0.17597016     0.16600
H323        H  0.15923747  0.66045066  0.16401382     0.19100
H324        H  0.15767804  0.50217774  0.07643117     0.12500
C325        C  0.70498980  0.94995806  0.25043372     0.16300
C326        C  0.71647738  0.96793347  0.27920556    -0.32700
C327        C  0.73352156  0.01094821  0.28138690     0.20700
C328        C  0.73824353  0.03477283  0.25606497     0.02900
C329        C  0.72732833  0.01692231  0.22728655    -0.22400
C330        C  0.71096700  0.97408494  0.22505402     0.12100
S331        S  0.68313375  0.89831208  0.24308665    -0.06100
C332        C  0.68308213  0.90958775  0.20541344    -0.09600
C333        C  0.69894915  0.95111320  0.19901855    -0.26200
S334        S  0.75839341  0.08609675  0.26330111    -0.03400
C335        C  0.76135959  0.07571289  0.30082443    -0.16800
C336        C  0.74719634  0.03440430  0.30724201    -0.14800
H337        H  0.71232521  0.94922926  0.29898299     0.20600
H338        H  0.73148537  0.03563016  0.20750383     0.16600
H339        H  0.70089635  0.96363469  0.17664666     0.19100
H340        H  0.74679374  0.02226086  0.32950071     0.12500
C341        C  0.73166950  0.97896201  0.02287553     0.16300
C342        C  0.76130437  0.00656116  0.50232153    -0.32700
C343        C  0.75081647  0.03203203  0.48577057     0.20700
C344        C  0.71294446  0.03092533  0.48998126     0.02900
C345        C  0.68303917  0.00292456  0.01035114    -0.22400
C346        C  0.69315787  0.97670833  0.02643584     0.12100
S347        S  0.73824918  0.94488551  0.04442587    -0.06100
C348        C  0.68807269  0.92637402  0.05776822    -0.09600
C349        C  0.66776682  0.94625851  0.04635647    -0.26200
S350        S  0.70717381  0.06582113  0.46854049    -0.03400
C351        C  0.75578306  0.08106439  0.45319970    -0.16800
C352        C  0.77527401  0.06033746  0.46442235    -0.14800
H353        H  0.79109650  0.00784983  0.49916020     0.20600
H354        H  0.65313805  0.00143269  0.01336175     0.16600
H355        H  0.63602762  0.93843281  0.05196017     0.19100
H356        H  0.80616494  0.06639664  0.45781864     0.12500
C357        C  0.73196032  0.69727384  0.49602446     0.16300
C358        C  0.71931963  0.70310830  0.02460801    -0.32700
C359        C  0.70664359  0.73269456  0.02736594     0.20700
C360        C  0.70564591  0.75489730  0.00258668     0.02900
C361        C  0.71910465  0.74962575  0.47400287    -0.22400
C362        C  0.73269287  0.72055754  0.47138288     0.12100
S363        S  0.74822684  0.66271815  0.48838600    -0.06100
C364        C  0.75755786  0.68055092  0.45175372    -0.09600
C365        C  0.74795657  0.71144360  0.44581314    -0.26200
S366        S  0.68714906  0.78783043  0.01052460    -0.03400
C367        C  0.68197952  0.77227329  0.04767788    -0.16800
C368        C  0.69375521  0.74303919  0.05342449    -0.14800
H369        H  0.71946154  0.68537548  0.04391368     0.20600
H370        H  0.71904439  0.76741531  0.45471343     0.16600
H371        H  0.75189252  0.72628840  0.42409927     0.19100
H372        H  0.69221893  0.72956071  0.07537206     0.12500
C373        C  0.72239413  0.74945081  0.23510097     0.16300
C374        C  0.75144182  0.75173963  0.25626884    -0.32700
C375        C  0.74237859  0.71547655  0.27163504     0.20700
C376        C  0.70629635  0.67819457  0.26581518     0.02900
C377        C  0.67663545  0.67606686  0.24499467    -0.22400
C378        C  0.68540752  0.71271249  0.22993061     0.12100
S379        S  0.72854659  0.79017372  0.21406415    -0.06100
C380        C  0.68024999  0.75802473  0.19851765    -0.09600
C381        C  0.66060023  0.71757336  0.20910243    -0.26200
S382        S  0.70287686  0.63717812  0.28550690    -0.03400
C383        C  0.74989456  0.67107099  0.30225366    -0.16800
C384        C  0.76712408  0.71171879  0.29283123    -0.14800
H385        H  0.78009164  0.78063838  0.26049135     0.20600
H386        H  0.64815396  0.64711843  0.24060695     0.16600
H387        H  0.63010014  0.69321437  0.20192011     0.19100
H388        H  0.79697135  0.73695919  0.30033946     0.12500
C389        C  0.44696114  0.84014671  0.15026283     0.16300
C390        C  0.41115209  0.83893790  0.16249786    -0.32700
C391        C  0.38214577  0.83932979  0.14224089     0.20700
C392        C  0.38901977  0.84194561  0.11128884     0.02900
C393        C  0.42520915  0.84418120  0.09914988    -0.22400
C394        C  0.45355417  0.84263981  0.11929324     0.12100
S395        S  0.48339544  0.83471844  0.17048822    -0.06100
C396        C  0.50705588  0.83486993  0.13671640    -0.09600
C397        C  0.48807127  0.84004023  0.11145260    -0.26200
S398        S  0.34861437  0.83821250  0.09031612    -0.03400
C399        C  0.32163906  0.83231246  0.12353978    -0.16800
C400        C  0.34362016  0.83421843  0.14943624    -0.14800
H401        H  0.40517559  0.83579663  0.18658804     0.20600
H402        H  0.43006578  0.84500878  0.07495689     0.16600
H403        H  0.49764569  0.83956889  0.08834338     0.19100
H404        H  0.33122903  0.82987554  0.17219770     0.12500
C405        C  0.38400742  0.55482440  0.13683154     0.16300
C406        C  0.41925706  0.58807438  0.14980465    -0.32700
C407        C  0.44756282  0.61915858  0.13048690     0.20700
C408        C  0.44167381  0.61703881  0.09948518     0.02900
C409        C  0.40654722  0.58334107  0.08639118    -0.22400
C410        C  0.37768626  0.55249577  0.10585822     0.12100
S411        S  0.34438928  0.51631280  0.15695305    -0.06100
C412        C  0.31833918  0.49690966  0.12342012    -0.09600
C413        C  0.34003572  0.51895236  0.09794139    -0.26200
S414        S  0.47878400  0.65939863  0.08033591    -0.03400
C415        C  0.50193504  0.68020251  0.11459813    -0.16800
C416        C  0.48199834  0.65513130  0.13925147    -0.14800
H417        H  0.42368189  0.59034688  0.17404498     0.20600
H418        H  0.40124380  0.58193021  0.06227749     0.16600
H419        H  0.32806064  0.51202974  0.07511074     0.19100
H420        H  0.49138340  0.66340251  0.16254548     0.12500
Fe421      Fe  0.68395719  0.84074442  0.62697228     1.65800
Fe422      Fe  0.59211553  0.79119964  0.66452401     1.73200
Fe423      Fe  0.59423891  0.80628574  0.58857704     1.54400
O424        O  0.62878502  0.86880374  0.57931310    -0.81300
O425        O  0.54577872  0.73795699  0.64448955    -0.79600
O426        O  0.69180651  0.87997520  0.59152512    -0.83800
O427        O  0.68379154  0.79811854  0.59686171    -0.78700
O428        O  0.54952155  0.81707601  0.60790934    -0.80400
O429        O  0.62285890  0.75903847  0.67505289    -0.83200
C430        C  0.66630736  0.78912299  0.57108692     0.97600
C431        C  0.66827084  0.89004145  0.57762656     1.05000
O432        O  0.62307779  0.81244504  0.62670298    -1.12200
O433        O  0.63536275  0.84239989  0.68902521    -0.74600
O434        O  0.68585411  0.88426018  0.65694319    -0.78100
O435        O  0.63618503  0.79506534  0.56426456    -0.78800
C436        C  0.66711710  0.87710397  0.68230932     0.96500
O437        O  0.68740405  0.80697418  0.66259011    -0.76700
O438        O  0.55767286  0.82070944  0.65791449    -0.81900
C439        C  0.53696554  0.72279927  0.61798480     0.99100
C440        C  0.54044281  0.82415148  0.63416793     1.05000
O441        O  0.55611923  0.74319473  0.59455378    -0.77600
C442        C  0.66215303  0.77484120  0.67714623     1.03300
Fe443      Fe  0.14948693  0.83954082  0.62707899     1.65800
Fe444      Fe  0.19753299  0.79312541  0.66202169     1.73200
Fe445      Fe  0.19935189  0.80052848  0.58492850     1.54400
O446        O  0.14243277  0.78504116  0.56518500    -0.81300
O447        O  0.25911063  0.81701283  0.64905983    -0.79600
O448        O  0.10394831  0.79586484  0.59928687    -0.83800
O449        O  0.17910452  0.87809269  0.59055849    -0.78700
O450        O  0.17624727  0.73849530  0.59425053    -0.80400
O451        O  0.21555537  0.84952077  0.68333557    -0.83200
C452        C  0.20916194  0.88501766  0.57294812     0.97600
C453        C  0.10798169  0.78151234  0.57419358     1.05000
O454        O  0.18231355  0.81105282  0.62477000    -1.12200
O455        O  0.13773381  0.76609691  0.68042463    -0.74600
O456        O  0.11435826  0.80700137  0.66383094    -0.78100
O457        O  0.22467012  0.86135403  0.57153471    -0.78800
C458        C  0.11158899  0.77878876  0.68110556     0.96500
O459        O  0.19225211  0.88425471  0.65573131    -0.76700
O460        O  0.18174073  0.73553924  0.64431596    -0.81900
C461        C  0.27727066  0.82117146  0.62385788     0.99100
C462        C  0.17359640  0.71876266  0.61827480     1.05000
O463        O  0.25846666  0.81475480  0.59882034    -0.77600
C464        C  0.21298824  0.88174350  0.67771027     1.03300
Fe465      Fe  0.15990646  0.31511752  0.62574580     1.65800
Fe466      Fe  0.19627895  0.40522944  0.58546956     1.73200
Fe467      Fe  0.19726051  0.40739154  0.66309034     1.54400
O468        O  0.13927849  0.36796702  0.68120860    -0.81300
O469        O  0.25682437  0.44827017  0.59788805    -0.79600
O470        O  0.11431541  0.30730173  0.65713700    -0.83800
O471        O  0.19902381  0.31628305  0.65915622    -0.78700
O472        O  0.17348466  0.44397087  0.64904834    -0.80400
O473        O  0.21968722  0.37015225  0.56551938    -0.83200
C474        C  0.22103201  0.34120057  0.67970612     0.97600
C475        C  0.11121783  0.33059375  0.67691694     1.05000
O476        O  0.18440357  0.37595434  0.62477874    -1.12200
O477        O  0.13701966  0.36567739  0.56914231    -0.74600
O478        O  0.11792941  0.30499171  0.59122700    -0.78100
O479        O  0.22332313  0.37594555  0.68383109    -0.78800
C480        C  0.11226513  0.32703714  0.57205817     0.96500
O481        O  0.20320812  0.31633538  0.59563486    -0.76700
O482        O  0.17503196  0.44500811  0.59887774    -0.81900
C483        C  0.27471489  0.46282145  0.62306959     0.99100
C484        C  0.16818123  0.45696777  0.62405036     1.05000
O485        O  0.25633053  0.45027330  0.64839838    -0.77600
C486        C  0.22174778  0.33821541  0.57274511     1.03300
Fe487      Fe  0.83537767  0.68148534  0.87469131     1.65800
Fe488      Fe  0.78847770  0.58626944  0.84017486     1.73200
Fe489      Fe  0.79302378  0.59267069  0.91725493     1.54400
O490        O  0.85099814  0.63292284  0.93472010    -0.81300
O491        O  0.72810375  0.54889592  0.85538519    -0.79600
O492        O  0.88109867  0.68857221  0.90501384    -0.83800
O493        O  0.79974205  0.68774012  0.90887029    -0.78700
O494        O  0.81523018  0.55357172  0.90535941    -0.80400
O495        O  0.76761464  0.62206131  0.81922990    -0.83200
C496        C  0.77631311  0.66456888  0.92996276     0.97600
C497        C  0.88155722  0.66795883  0.92762420     1.05000
O498        O  0.80560601  0.62020443  0.87738487    -1.12200
O499        O  0.84726847  0.61964129  0.82094054    -0.74600
O500        O  0.87455747  0.68333756  0.84021546    -0.78100
O501        O  0.76964811  0.62819475  0.93438693    -0.78800
C502        C  0.87598778  0.65726077  0.82231220     0.96500
O503        O  0.79414530  0.68227831  0.84374397    -0.76700
O504        O  0.80605284  0.54498400  0.85566105    -0.81900
C505        C  0.71209734  0.53573425  0.88127266     0.99100
C506        C  0.81580207  0.53614919  0.88085800     1.05000
O507        O  0.73282222  0.54864388  0.90554261    -0.77600
C508        C  0.77155508  0.65757937  0.82315115     1.03300
Fe509      Fe  0.83697099  0.14985951  0.87656295     1.65800
Fe510      Fe  0.79451740  0.20182615  0.91272190     1.73200
Fe511      Fe  0.79532404  0.19842277  0.83591788     1.54400
O512        O  0.85635242  0.22393652  0.82105694    -0.81300
O513        O  0.73599031  0.18677985  0.89717344    -0.79600
O514        O  0.87575128  0.18063195  0.84013903    -0.83800
O515        O  0.79373229  0.10490840  0.84786010    -0.78700
O516        O  0.80821300  0.25657790  0.84911381    -0.80400
O517        O  0.76726141  0.14369512  0.93188528    -0.83200
C518        C  0.77923785  0.10944547  0.82311184     0.97600
C519        C  0.88117508  0.20955838  0.82224955     1.05000
O520        O  0.80898266  0.18338464  0.87516278    -1.12200
O521        O  0.85170285  0.21916958  0.93238145    -0.74600
O522        O  0.88293321  0.19085038  0.90578509    -0.78100
O523        O  0.78069013  0.14299144  0.81583482    -0.78800
C524        C  0.88261545  0.21383661  0.92704153     0.96500
O525        O  0.80243424  0.11442928  0.91288209    -0.76700
O526        O  0.81925445  0.26236644  0.89858969    -0.81900
C527        C  0.71594979  0.17530088  0.87248045     0.99100
C528        C  0.81844538  0.27759935  0.87323779     1.05000
O529        O  0.73283990  0.17432142  0.84755843    -0.77600
C530        C  0.77606747  0.11486107  0.93120272     1.03300
Fe531      Fe  0.30633635  0.15689321  0.87603705     1.65800
Fe532      Fe  0.40127175  0.19652083  0.91121749     1.73200
Fe533      Fe  0.39634736  0.19723188  0.83381567     1.54400
O534        O  0.35669828  0.13918304  0.81622803    -0.81300
O535        O  0.44117053  0.25699179  0.89799086    -0.79600
O536        O  0.29739011  0.11342150  0.84301257    -0.83800
O537        O  0.30278415  0.19594827  0.84458438    -0.78700
O538        O  0.43673092  0.17619827  0.84422491    -0.80400
O539        O  0.36635366  0.21765533  0.93449531    -0.83200
C540        C  0.32575996  0.21784775  0.82301689     0.97600
C541        C  0.31940568  0.11099110  0.82169715     1.05000
O542        O  0.36798637  0.18342632  0.87366845    -1.12200
O543        O  0.36510263  0.13751453  0.92799755    -0.74600
O544        O  0.30131313  0.11478483  0.90899764    -0.78100
O545        O  0.36053000  0.22054625  0.81660012    -0.78800
C546        C  0.32652150  0.11089596  0.92638870     0.96500
O547        O  0.30820492  0.19786451  0.90809742    -0.76700
O548        O  0.44156579  0.17769633  0.89424103    -0.81900
C549        C  0.45312564  0.27513199  0.87261652     0.99100
C550        C  0.45214053  0.17148876  0.86827976     1.05000
O551        O  0.43919697  0.25672092  0.84750991    -0.77600
C552        C  0.33243507  0.21761061  0.92966995     1.03300
C553        C  0.60528182  0.15557060  0.88768977     0.16300
C554        C  0.57020629  0.15442476  0.90096115    -0.32700
C555        C  0.54011829  0.15413602  0.88172861     0.20700
C556        C  0.54407446  0.15381003  0.85056685     0.02900
C557        C  0.57883025  0.15396391  0.83721242    -0.22400
C558        C  0.60963466  0.15543206  0.85654333     0.12100
S559        S  0.64720316  0.16114757  0.90741501    -0.06100
C560        C  0.67158185  0.16407057  0.87345032    -0.09600
C561        C  0.64765326  0.15989983  0.84816136    -0.26200
S562        S  0.50598274  0.15743759  0.83134636    -0.03400
C563        C  0.48526774  0.16045630  0.86573180    -0.16800
C564        C  0.50630070  0.15751950  0.89055195    -0.14800
H565        H  0.56750882  0.15579571  0.92526012     0.20600
H566        H  0.58266046  0.15493927  0.81290517     0.16600
H567        H  0.65832603  0.16229515  0.82502754     0.19100
H568        H  0.49875249  0.16021794  0.91383213     0.12500
C569        C  0.60260998  0.44416463  0.89722618     0.16300
C570        C  0.56802862  0.40942073  0.90987895    -0.32700
C571        C  0.53878125  0.37989376  0.88996030     0.20700
C572        C  0.54309256  0.38543269  0.85891440     0.02900
C573        C  0.57701884  0.42063324  0.84633579    -0.22400
C574        C  0.60689076  0.44943480  0.86616238     0.12100
S575        S  0.64431261  0.48064068  0.91719510    -0.06100
C576        C  0.66807222  0.50266194  0.88326244    -0.09600
C577        C  0.64414947  0.48313190  0.85803118    -0.26200
S578        S  0.50669497  0.34461262  0.83843711    -0.03400
C579        C  0.48584085  0.31914327  0.87197015    -0.16800
C580        C  0.50565017  0.34197471  0.89763313    -0.14800
H581        H  0.56520432  0.40455671  0.93407415     0.20600
H582        H  0.58109182  0.42433620  0.82208734     0.16600
H583        H  0.65444368  0.49169188  0.83488945     0.19100
H584        H  0.49767501  0.33061408  0.92056922     0.12500
C585        C  0.83463050  0.44537095  0.89539422     0.16300
C586        C  0.83688428  0.41212642  0.90810797    -0.32700
C587        C  0.83493244  0.38159442  0.88842807     0.20700
C588        C  0.83173531  0.38446893  0.85742789     0.02900
C589        C  0.83022214  0.41805588  0.84467611    -0.22400
C590        C  0.83129458  0.44811085  0.86440255     0.12100
S591        S  0.83236247  0.48336829  0.91559559    -0.06100
C592        C  0.82622754  0.50281704  0.88194745    -0.09600
C593        C  0.82670412  0.48114352  0.85652550    -0.26200
S594        S  0.82638751  0.34277856  0.83759926    -0.03400
C595        C  0.82782250  0.32083659  0.87146618    -0.16800
C596        C  0.83306613  0.34524079  0.89662799    -0.14800
H597        H  0.83842555  0.40934692  0.93233994     0.20600
H598        H  0.82667515  0.41982533  0.82055475     0.16600
H599        H  0.82203422  0.48805726  0.83361635     0.19100
H600        H  0.83328256  0.33598046  0.91975008     0.12500
C601        C  0.02449423  0.26233175  0.51584584     0.16300
C602        C  0.99667060  0.23225099  0.49557093    -0.29100
C603        C  0.97069567  0.24188608  0.97846883     0.20700
C604        C  0.97194145  0.27958715  0.98178549     0.02900
C605        C  0.00046101  0.31002725  0.00150802    -0.22400
C606        C  0.02682482  0.30061178  0.51828577     0.12100
S607        S  0.05808557  0.25640799  0.53897613    -0.06100
C608        C  0.07638631  0.30645981  0.55140845    -0.09600
C609        C  0.05693083  0.32627299  0.53839225    -0.26200
S610        S  0.93560477  0.28407986  0.96089434    -0.03400
C611        C  0.91926197  0.23511777  0.94688435    -0.16800
C612        C  0.94095710  0.21646722  0.95802213    -0.14800
H613        H  0.99510848  0.20246003  0.49339234     0.20600
H614        H  0.00175878  0.33967288  0.00389618     0.16600
H615        H  0.06454826  0.35783336  0.54330852     0.19100
H616        H  0.93409640  0.18530566  0.95243439     0.12500
C617        C  0.01872892  0.30356705  0.72999633     0.16300
C618        C  0.98818647  0.30398058  0.74880143    -0.32700
C619        C  0.96437196  0.26911712  0.76693871     0.20700
C620        C  0.97099231  0.23552859  0.76660383     0.02900
C621        C  0.00092355  0.23475072  0.74733738    -0.22400
C622        C  0.02439592  0.26939641  0.72893115     0.12100
S623        S  0.05255090  0.34381624  0.70771605    -0.06100
C624        C  0.07386336  0.31392405  0.69628880    -0.09600
C625        C  0.05560074  0.27490208  0.70919942    -0.26200
S626        S  0.93985871  0.19683588  0.79097502    -0.03400
C627        C  0.91692744  0.22572331  0.80124104    -0.16800
C628        C  0.93304404  0.26349611  0.78657634    -0.14800
H629        H  0.98349818  0.33051006  0.74950164     0.20600
H630        H  0.00592825  0.20841150  0.74689273     0.16600
H631        H  0.06586782  0.25255285  0.70537475     0.19100
H632        H  0.92233280  0.28556629  0.79004154     0.12500
C633        C  0.27968702  0.29650257  0.72195081     0.16300
C634        C  0.30014836  0.27491464  0.73028456    -0.32700
C635        C  0.30135543  0.26709476  0.76107168     0.20700
C636        C  0.28299087  0.28010609  0.78272043     0.02900
C637        C  0.26378852  0.30305393  0.77446655    -0.22400
C638        C  0.26258680  0.31091656  0.74358863     0.12100
S639        S  0.27080018  0.30478841  0.68556646    -0.06100
C640        C  0.24439748  0.32858334  0.69956979    -0.09600
C641        C  0.24297892  0.33024062  0.73081849    -0.26200
S642        S  0.28483870  0.26425391  0.81862181    -0.03400
C643        C  0.31147184  0.24080001  0.80423937    -0.16800
C644        C  0.31832590  0.24512956  0.77335586    -0.14800
H645        H  0.31336900  0.26351234  0.71341138     0.20600
H646        H  0.24929259  0.31319951  0.79125197     0.16600
H647        H  0.22633513  0.34262442  0.74340228     0.19100
H648        H  0.33390494  0.23186454  0.76047126     0.12500
C649        C  0.29266268  0.28183249  0.97127055     0.16300
C650        C  0.27350356  0.30493270  0.97936932    -0.32700
C651        C  0.26881397  0.31023646  0.51023233     0.20700
C652        C  0.28274118  0.29339008  0.53209915     0.02900
C653        C  0.30330051  0.27153790  0.52399233    -0.22400
C654        C  0.30784088  0.26608443  0.99307653     0.12100
S655        S  0.29722173  0.26840661  0.93515359    -0.06100
C656        C  0.32051255  0.24190175  0.94943111    -0.09600
C657        C  0.32464582  0.24368332  0.98059622    -0.26200
S658        S  0.26990447  0.29932551  0.56818852    -0.03400
C659        C  0.24602976  0.32522947  0.55366385    -0.16800
C660        C  0.24841759  0.32926351  0.52251217    -0.14800
H661        H  0.26138204  0.31695538  0.96234030     0.20600
H662        H  0.31391381  0.25808470  0.54102402     0.16600
H663        H  0.33750075  0.22793106  0.99343883     0.19100
H664        H  0.23400750  0.34335408  0.50946702     0.12500
C665        C  0.23570397  0.97651590  0.52010140     0.16300
C666        C  0.23502683  0.00708622  0.00208178    -0.32700
C667        C  0.26811698  0.02833567  0.98158829     0.20700
C668        C  0.30090063  0.02015213  0.97960229     0.02900
C669        C  0.30129947  0.98922772  0.49735007    -0.22400
C670        C  0.26782627  0.96746046  0.51743491     0.12100
S671        S  0.19820388  0.94685971  0.54597526    -0.06100
C672        C  0.22548326  0.92118388  0.55272941    -0.09600
C673        C  0.26203859  0.93558953  0.53599379    -0.26200
S674        S  0.33940171  0.05112185  0.95475630    -0.03400
C675        C  0.31050361  0.07459528  0.94633653    -0.16800
C676        C  0.27315874  0.05917525  0.96218564    -0.14800
H677        H  0.20975344  0.01392407  0.00389518     0.20600
H678        H  0.32661462  0.98244540  0.49559122     0.16600
H679        H  0.28295160  0.92302980  0.53703716     0.19100
H680        H  0.25171557  0.07104358  0.96046515     0.12500
C681        C  0.25651139  0.01923409  0.76851350     0.16300
C682        C  0.22594256  0.98887054  0.74991816    -0.32700
C683        C  0.23780029  0.96575935  0.73143509     0.20700
C684        C  0.27812027  0.97185939  0.73184547     0.02900
C685        C  0.30903183  0.00292233  0.75001703    -0.22400
C686        C  0.29731571  0.02666394  0.76811084     0.12100
S687        S  0.24803930  0.05025955  0.79262899    -0.06100
C688        C  0.30029623  0.07452995  0.80168013    -0.09600
C689        C  0.32280441  0.05884797  0.78686314    -0.26200
S690        S  0.28518515  0.93847243  0.70908485    -0.03400
C691        C  0.23368680  0.91724163  0.69831719    -0.16800
C692        C  0.21240164  0.93494241  0.71186985    -0.14800
H693        H  0.19421460  0.98346020  0.74987303     0.20600
H694        H  0.34073771  0.00827676  0.75010754     0.16600
H695        H  0.35599802  0.07046577  0.78962534     0.19100
H696        H  0.17966890  0.92489250  0.70823733     0.12500
C697        C  0.02467235  0.75267739  0.73911088     0.16300
C698        C  0.99598752  0.75409161  0.75921286    -0.32700
C699        C  0.96724236  0.71719193  0.77341577     0.20700
C700        C  0.96664334  0.68022789  0.76765352     0.02900
C701        C  0.99610758  0.67897559  0.74797298    -0.22400
C702        C  0.02532198  0.71617875  0.73395029     0.12100
S703        S  0.06047644  0.79395018  0.71880384    -0.06100
C704        C  0.07747411  0.76227661  0.70349694    -0.09600
C705        C  0.05625268  0.72166005  0.71376060    -0.26200
S706        S  0.92730178  0.63845562  0.78593604    -0.03400
C707        C  0.91232495  0.67150072  0.80193625    -0.16800
C708        C  0.93661488  0.71250166  0.79331303    -0.14800
H709        H  0.99575286  0.78272054  0.76332504     0.20600
H710        H  0.99594193  0.65023256  0.74352131     0.16600
H711        H  0.06239448  0.69741037  0.70630665     0.19100
H712        H  0.93147462  0.73745608  0.80065322     0.12500
C713        C  0.98589941  0.72088648  0.97005224     0.16300
C714        C  0.02773925  0.74398050  0.97909033    -0.32700
C715        C  0.03639803  0.74412269  0.50991961     0.20700
C716        C  0.00485152  0.72264085  0.53092945     0.02900
C717        C  0.96317145  0.69860071  0.52177618    -0.22400
C718        C  0.95457372  0.69815236  0.99091454     0.12100
S719        S  0.96847212  0.71844243  0.93397121    -0.06100
C720        C  0.91864594  0.68553065  0.94707577    -0.09600
C721        C  0.91600888  0.67733721  0.97776726    -0.26200
S722        S  0.02153476  0.72942206  0.56753937    -0.03400
C723        C  0.07161479  0.76066752  0.55424018    -0.16800
C724        C  0.07489856  0.76542571  0.52315267    -0.14800
H725        H  0.05238915  0.76160934  0.96288964     0.20600
H726        H  0.93842842  0.68154397  0.53804797     0.16600
H727        H  0.88717863  0.65792541  0.98993545     0.19100
H728        H  0.10382919  0.78450998  0.51100120     0.12500
C729        C  0.15270809  0.60878324  0.60108020     0.16300
C730        C  0.15142294  0.57371899  0.58800453    -0.32700
C731        C  0.15033596  0.54357528  0.60755942     0.20700
C732        C  0.14909070  0.54754898  0.63866665     0.02900
C733        C  0.14949844  0.58208965  0.65167251    -0.22400
C734        C  0.15205976  0.61281562  0.63220649     0.12100
S735        S  0.15911107  0.65110814  0.58157181    -0.06100
C736        C  0.16206641  0.67481620  0.61578892    -0.09600
C737        C  0.15720028  0.65045458  0.64075936    -0.26200
S738        S  0.15182403  0.51001527  0.65867591    -0.03400
C739        C  0.15605727  0.48919808  0.62486944    -0.16800
C740        C  0.15396324  0.50981801  0.59945562    -0.14800
H741        H  0.15335617  0.57107669  0.56374871     0.20600
H742        H  0.15001922  0.58587623  0.67597009     0.16600
H743        H  0.15923651  0.66045000  0.66401401     0.19100
H744        H  0.15768066  0.50217903  0.57643117     0.12500
C745        C  0.70498797  0.94995757  0.75043318     0.16300
C746        C  0.71647567  0.96793299  0.77920502    -0.32700
C747        C  0.73351991  0.01094775  0.78138630     0.20700
C748        C  0.73824171  0.03477234  0.75606441     0.02900
C749        C  0.72732612  0.01692176  0.72728602    -0.22400
C750        C  0.71096489  0.97408438  0.72505350     0.12100
S751        S  0.68313259  0.89831166  0.74308613    -0.06100
C752        C  0.68308097  0.90958728  0.70541292    -0.09600
C753        C  0.69894734  0.95111264  0.69901803    -0.26200
S754        S  0.75839211  0.08609634  0.76330050    -0.03400
C755        C  0.76135861  0.07571246  0.80082376    -0.16800
C756        C  0.74719513  0.03440385  0.80724137    -0.14800
H757        H  0.71232388  0.94922905  0.79898219     0.20600
H758        H  0.73148301  0.03562950  0.70750338     0.16600
H759        H  0.70089453  0.96363415  0.67664600     0.19100
H760        H  0.74679273  0.02226044  0.82949999     0.12500
C761        C  0.73167029  0.97896271  0.52287558     0.16300
C762        C  0.76130325  0.00656008  0.00232116    -0.32700
C763        C  0.75081498  0.03203053  0.98577000     0.20700
C764        C  0.71294298  0.03092378  0.98998078     0.02900
C765        C  0.68304034  0.00292576  0.51035129    -0.22400
C766        C  0.69315863  0.97670907  0.52643576     0.12100
S767        S  0.73824953  0.94488579  0.54442572    -0.06100
C768        C  0.68807284  0.92637410  0.55776778    -0.09600
C769        C  0.66776725  0.94625889  0.54635607    -0.26200
S770        S  0.70717202  0.06581922  0.96853978    -0.03400
C771        C  0.75578122  0.08106247  0.95319890    -0.16800
C772        C  0.77527229  0.06033568  0.96442157    -0.14800
H773        H  0.79109528  0.00784878  0.99915975     0.20600
H774        H  0.65313918  0.00143396  0.51336183     0.16600
H775        H  0.63602784  0.93843317  0.55195968     0.19100
H776        H  0.80616319  0.06639490  0.95781785     0.12500
C777        C  0.73196084  0.69727452  0.99602503     0.16300
C778        C  0.71931870  0.70310738  0.52460732    -0.32700
C779        C  0.70664366  0.73269433  0.52736543     0.20700
C780        C  0.70564735  0.75489812  0.50258634     0.02900
C781        C  0.71910267  0.74962457  0.97400311    -0.22400
C782        C  0.73269194  0.72055715  0.97138323     0.12100
S783        S  0.74822873  0.66271982  0.98838681    -0.06100
C784        C  0.75755818  0.68055148  0.95175421    -0.09600
C785        C  0.74795547  0.71144313  0.94581344    -0.26200
S786        S  0.68715128  0.78783186  0.51052432    -0.03400
C787        C  0.68198035  0.77227366  0.54767741    -0.16800
C788        C  0.69375495  0.74303875  0.55342388    -0.14800
H789        H  0.71945948  0.68537346  0.54391313     0.20600
H790        H  0.71904133  0.76741335  0.95471349     0.16600
H791        H  0.75189033  0.72628725  0.92409926     0.19100
H792        H  0.69221764  0.72955942  0.57537149     0.12500
C793        C  0.72239504  0.74945129  0.73510095     0.16300
C794        C  0.75144222  0.75174007  0.75626925    -0.32700
C795        C  0.74237917  0.71547677  0.77163504     0.20700
C796        C  0.70629753  0.67819457  0.76581437     0.02900
C797        C  0.67663709  0.67606686  0.74499344    -0.22400
C798        C  0.68540898  0.71271272  0.72992984     0.12100
S799        S  0.72854743  0.79017442  0.71406439    -0.06100
C800        C  0.68025151  0.75802516  0.69851707    -0.09600
C801        C  0.66060198  0.71757355  0.70910138    -0.26200
S802        S  0.70287812  0.63717793  0.78550576    -0.03400
C803        C  0.74989496  0.67107097  0.80225351    -0.16800
C804        C  0.76712418  0.71171895  0.79283158    -0.14800
H805        H  0.78009172  0.78063913  0.76049240     0.20600
H806        H  0.64815601  0.64711819  0.74060508     0.16600
H807        H  0.63010256  0.69321460  0.70191860     0.19100
H808        H  0.79697110  0.73695961  0.80034048     0.12500
C809        C  0.44695978  0.84014361  0.65026377     0.16300
C810        C  0.41115067  0.83893465  0.66249895    -0.32700
C811        C  0.38214516  0.83932850  0.64224213     0.20700
C812        C  0.38901995  0.84194620  0.61129016     0.02900
C813        C  0.42520932  0.84418176  0.59915107    -0.22400
C814        C  0.45355352  0.84263850  0.61929428     0.12100
S815        S  0.48339352  0.83471394  0.67048880    -0.06100
C816        C  0.50705477  0.83486735  0.63671689    -0.09600
C817        C  0.48807069  0.84003908  0.61145333    -0.26200
S818        S  0.34861547  0.83821532  0.59031747    -0.03400
C819        C  0.32163936  0.83231355  0.62354101    -0.16800
C820        C  0.34361966  0.83421752  0.64943744    -0.14800
H821        H  0.40517362  0.83579201  0.68658891     0.20600
H822        H  0.43006652  0.84501090  0.57495840     0.16600
H823        H  0.49764559  0.83956918  0.58834429     0.19100
H824        H  0.33122784  0.82987325  0.67219892     0.12500
C825        C  0.38400982  0.55482217  0.63683065     0.16300
C826        C  0.41926026  0.58807143  0.64980365    -0.32700
C827        C  0.44756569  0.61915600  0.63048594     0.20700
C828        C  0.44167572  0.61703710  0.59948435     0.02900
C829        C  0.40654854  0.58333989  0.58639042    -0.22400
C830        C  0.37768779  0.55249438  0.60585747     0.12100
S831        S  0.34439148  0.51631082  0.65695226    -0.06100
C832        C  0.31834020  0.49690893  0.62341956    -0.09600
C833        C  0.34003649  0.51895181  0.59794079    -0.26200
S834        S  0.47878507  0.65939767  0.58033525    -0.03400
C835        C  0.50193699  0.68020081  0.61459736    -0.16800
C836        C  0.48200135  0.65512868  0.63925054    -0.14800
H837        H  0.42368570  0.59034335  0.67404392     0.20600
H838        H  0.40124435  0.58192981  0.56227699     0.16600
H839        H  0.32806081  0.51203005  0.57511045     0.19100
H840        H  0.49138695  0.66339934  0.66254445     0.12500
loop_ 
_geom_bond_atom_site_label_1 
_geom_bond_atom_site_label_2 
_geom_bond_distance 
_geom_bond_site_symmetry_2 
_ccdc_geom_bond_type 
Fe1          O17   2.064       .  S
Fe1           O7   2.064       .  S
Fe1          O14   2.063       .  S
Fe1           O6   2.067       .  S
Fe1          O12   1.947       .  S
Fe2           O5   2.065       .  S
Fe2           O9   2.072       .  S
Fe2          O13   2.080       .  S
Fe2          O18   2.073       .  S
Fe2          O12   1.955       .  S
Fe3          O21   2.067       .  S
Fe3           O8   2.061       .  S
Fe3          O15   2.083       .  S
Fe3           O4   2.063       .  S
Fe3          O12   1.951       .  S
O4           C11   1.266       .  A
O5           C19   1.271       .  A
O6           C11   1.266       .  A
O7           C10   1.273       .  A
O8           C20   1.270       .  A
O9           C22   1.267       .  A
C10          O15   1.273       .  A
C10         C367   1.465       .  S
C11         C348   1.468       .  S
O13          C16   1.273       .  A
O14          C16   1.272       .  A
C16         C332   1.463       .  S
O17          C22   1.266       .  A
O18          C20   1.271       .  A
C19          O21   1.271       .  A
C19         C415   1.472       .  S
C20         C396   1.474       .  S
C22         C380   1.469       .  S
Fe23         O39   2.063       .  S
Fe23         O29   2.075       .  S
Fe23         O36   2.055       .  S
Fe23         O28   2.065       .  S
Fe23         O34   1.967       .  S
Fe24         O27   2.062       .  S
Fe24         O31   2.082       .  S
Fe24         O35   2.077       .  S
Fe24         O40   2.072       .  S
Fe24         O34   1.968       .  S
Fe25         O43   2.067       .  S
Fe25         O30   2.067       .  S
Fe25         O37   2.061       .  S
Fe25         O26   2.076       .  S
Fe25         O34   1.970       .  S
O26          C33   1.271       .  A
O27          C41   1.267       .  A
O28          C33   1.270       .  A
O29          C32   1.268       .  A
O30          C42   1.270       .  A
O31          C44   1.274       .  A
C32          O37   1.267       .  A
C32         C252   1.474       .  S
C33         C303   1.467       .  S
O35          C38   1.267       .  A
O36          C38   1.264       .  A
C38         C284   1.471       .  S
O39          C44   1.273       .  A
O40          C42   1.273       .  A
C41          O43   1.268       .  A
C41         C399   1.473       .  S
C42         C316   1.474       .  S
C44         C271   1.467       .  S
Fe45         O61   2.056       .  S
Fe45         O51   2.057       .  S
Fe45         O58   2.077       .  S
Fe45         O50   2.080       .  S
Fe45         O56   1.977       .  S
Fe46         O49   2.073       .  S
Fe46         O53   2.080       .  S
Fe46         O57   2.066       .  S
Fe46         O62   2.072       .  S
Fe46         O56   1.985       .  S
Fe47         O65   2.060       .  S
Fe47         O52   2.051       .  S
Fe47         O59   2.067       .  S
Fe47         O48   2.057       .  S
Fe47         O56   1.977       .  S
O48          C55   1.268       .  A
O49          C63   1.272       .  A
O50          C55   1.273       .  A
O51          C54   1.264       .  A
O52          C64   1.264       .  A
O53          C66   1.270       .  A
C54          O59   1.265       .  A
C54         C220   1.466       .  S
C55         C204   1.468       .  S
O57          C60   1.269       .  A
O58          C60   1.271       .  A
C60         C188   1.474       .  S
O61          C66   1.266       .  A
O62          C64   1.268       .  A
C63          O65   1.271       .  A
C63         C412   1.471       .  S
C64         C319   1.473       .  S
C66         C239   1.471       .  S
Fe67         O83   2.063       .  S
Fe67         O73   2.084       .  S
Fe67         O80   2.072       .  S
Fe67         O72   2.072       .  S
Fe67         O78   1.982       .  S
Fe68         O71   2.062       .  S
Fe68         O75   2.065       .  S
Fe68         O79   2.067       .  S
Fe68         O84   2.062       .  S
Fe68         O78   1.976       .  S
Fe69         O87   2.065       .  S
Fe69         O74   2.058       .  S
Fe69         O81   2.044       .  S
Fe69         O70   2.057       .  S
Fe69         O78   1.978       .  S
O70          C77   1.267       .  A
O71          C85   1.269       .  A
O72          C77   1.269       .  A
O73          C76   1.272       .  A
O74          C86   1.266       .  A
O75          C88   1.267       .  A
C76          O81   1.265       .  A
C76         C364   1.469       .  S
C77         C300   1.469       .  S
O79          C82   1.269       .  A
O80          C82   1.271       .  A
C82         C287   1.474       .  S
O83          C88   1.268       .  A
O84          C86   1.268       .  A
C85          O87   1.268       .  A
C85         C156   1.472       .  S
C86         C172   1.470       .  S
C88         C383   1.469       .  S
Fe89        O105   2.066       .  S
Fe89         O95   2.075       .  S
Fe89        O102   2.075       .  S
Fe89         O94   2.077       .  S
Fe89        O100   1.976       .  S
Fe90         O93   2.062       .  S
Fe90         O97   2.062       .  S
Fe90        O101   2.069       .  S
Fe90        O106   2.064       .  S
Fe90        O100   1.965       .  S
Fe91        O109   2.075       .  S
Fe91         O96   2.054       .  S
Fe91        O103   2.053       .  S
Fe91         O92   2.063       .  S
Fe91        O100   1.971       .  S
O92          C99   1.270       .  A
O93         C107   1.271       .  A
O94          C99   1.272       .  A
O95          C98   1.270       .  A
O96         C108   1.264       .  A
O97         C110   1.266       .  A
C98         O103   1.265       .  A
C98         C335   1.468       .  S
C99         C207   1.471       .  S
O101        C104   1.270       .  A
O102        C104   1.272       .  A
C104        C191   1.472       .  S
O105        C110   1.268       .  A
O106        C108   1.267       .  A
C107        O109   1.273       .  A
C107        C140   1.473       .  S
C108        C175   1.470       .  S
C110        C351   1.468       .  S
Fe111       O127   2.054       .  S
Fe111       O117   2.068       .  S
Fe111       O124   2.085       .  S
Fe111       O116   2.077       .  S
Fe111       O122   1.978       .  S
Fe112       O115   2.068       .  S
Fe112       O119   2.078       .  S
Fe112       O123   2.059       .  S
Fe112       O128   2.068       .  S
Fe112       O122   1.982       .  S
Fe113       O131   2.069       .  S
Fe113       O118   2.052       .  S
Fe113       O125   2.057       .  S
Fe113       O114   2.065       .  S
Fe113       O122   1.980       .  S
O114        C121   1.270       .  A
O115        C129   1.271       .  A
O116        C121   1.273       .  A
O117        C120   1.266       .  A
O118        C130   1.263       .  A
O119        C132   1.269       .  A
C120        O125   1.265       .  A
C120        C223   1.468       .  S
C121        C268   1.472       .  S
O123        C126   1.268       .  A
O124        C126   1.273       .  A
C126        C255   1.471       .  S
O127        C132   1.265       .  A
O128        C130   1.268       .  A
C129        O131   1.272       .  A
C129        C159   1.474       .  S
C130        C143   1.472       .  S
C132        C236   1.469       .  S
C133        S139   1.699       .  A
C133        C138   1.387       .  A
C133        C134   1.398       .  A
C134        C135   1.398       .  A
C134        H145   1.083       .  S
C135        C144   1.368       .  A
C135        C136   1.387       .  A
C136        S142   1.708       .  A
C136        C137   1.405       .  A
C137        C138   1.405       .  A
C137        H146   1.083       .  S
C138        C141   1.375       .  A
S139        C140   1.722       .  A
C140        C141   1.389       .  A
C141        H147   1.083       .  S
S142        C143   1.727       .  A
C143        C144   1.384       .  A
C144        H148   1.083       .  S
C149        S155   1.708       .  A
C149        C154   1.387       .  A
C149        C150   1.403       .  A
C150        C151   1.404       .  A
C150        H161   1.083       .  S
C151        C160   1.372       .  A
C151        C152   1.387       .  A
C152        S158   1.704       .  A
C152        C153   1.399       .  A
C153        C154   1.400       .  A
C153        H162   1.083       .  S
C154        C157   1.368       .  A
S155        C156   1.725       .  A
C156        C157   1.386       .  A
C157        H163   1.083       .  S
S158        C159   1.722       .  A
C159        C160   1.389       .  A
C160        H164   1.083       .  S
C165        S171   1.706       .  A
C165        C170   1.387       .  A
C165        C166   1.401       .  A
C166        C167   1.402       .  A
C166        H177   1.083       .  S
C167        C176   1.370       .  A
C167        C168   1.387       .  A
C168        S174   1.703       .  A
C168        C169   1.400       .  A
C169        C170   1.401       .  A
C169        H178   1.083       .  S
C170        C173   1.368       .  A
S171        C172   1.723       .  A
C172        C173   1.386       .  A
C173        H179   1.083       .  S
S174        C175   1.724       .  A
C175        C176   1.386       .  A
C176        H180   1.083       .  S
C181        S187   1.708       .  A
C181        C186   1.387       .  A
C181        C182   1.403   1_454  A
C182        C603   1.404       .  A
C182        H193   1.085       .  S
C183        C192   1.374       .  A
C183        C184   1.387       .  A
C183        C602   1.404       .  A
C184        S190   1.707       .  A
C184        C185   1.403   1_655  A
C185        C606   1.403       .  A
C185        H194   1.085       .  S
C186        C189   1.373       .  A
C186        C605   1.403       .  A
S187        C188   1.724       .  A
C188        C189   1.387       .  A
C189        H195   1.084       .  S
S190        C191   1.723       .  A
C191        C192   1.387       .  A
C192        H196   1.084       .  S
C197        S203   1.706       .  A
C197        C202   1.388       .  A
C197        C198   1.402   1_455  A
C198        C199   1.402       .  A
C198        H209   1.084       .  S
C199        C208   1.372       .  A
C199        C200   1.387       .  A
C200        S206   1.706       .  A
C200        C201   1.402   1_655  A
C201        C202   1.402       .  A
C201        H210   1.084       .  S
C202        C205   1.372       .  A
S203        C204   1.723       .  A
C204        C205   1.385       .  A
C205        H211   1.083       .  S
S206        C207   1.723       .  A
C207        C208   1.387       .  A
C208        H212   1.083       .  S
C213        S219   1.705       .  A
C213        C218   1.388       .  A
C213        C214   1.399       .  A
C214        C215   1.400       .  A
C214        H225   1.083       .  S
C215        C224   1.368       .  A
C215        C216   1.387       .  A
C216        S222   1.711       .  A
C216        C217   1.404       .  A
C217        C218   1.405       .  A
C217        H226   1.083       .  S
C218        C221   1.373       .  A
S219        C220   1.720       .  A
C220        C221   1.386       .  A
C221        H227   1.083       .  S
S222        C223   1.723       .  A
C223        C224   1.384       .  A
C224        H228   1.083       .  S
C229        S235   1.705       .  A
C229        C234   1.388       .  A
C229        C230   1.401       .  A
C230        C651   1.401       .  A
C230        H241   1.083       .  S
C231        C240   1.372       .  A
C231        C232   1.387       .  A
C231        C650   1.401   1_554  A
C232        S238   1.708       .  A
C232        C233   1.404       .  A
C233        C654   1.404   1_554  A
C233        H242   1.083       .  S
C234        C237   1.374       .  A
C234        C653   1.404       .  A
S235        C236   1.721       .  A
C236        C237   1.386       .  A
C237        H243   1.083       .  S
S238        C239   1.724       .  A
C239        C240   1.385       .  A
C240        H244   1.083       .  S
C245        S251   1.707       .  A
C245        C250   1.387       .  A
C245        C666   1.403   1_565  A
C246        C247   1.403       .  A
C246        C665   1.403   1_545  A
C246        H257   1.083       .  S
C247        C256   1.372       .  A
C247        C248   1.387       .  A
C248        S254   1.708       .  A
C248        C669   1.402   1_545  A
C249        C250   1.403   1_556  A
C249        C668   1.402   1_565  A
C249        H258   1.083       .  S
C250        C253   1.372       .  A
S251        C252   1.724       .  A
C252        C253   1.387       .  A
C253        H259   1.083       .  S
S254        C255   1.723       .  A
C255        C256   1.386       .  A
C256        H260   1.083       .  S
C261        S267   1.706       .  A
C261        C266   1.387       .  A
C261        C262   1.400   1_545  A
C262        C263   1.401       .  A
C262        H273   1.083       .  S
C263        C272   1.369       .  A
C263        C264   1.387       .  A
C264        S270   1.712       .  A
C264        C265   1.405   1_565  A
C265        C266   1.406       .  A
C265        H274   1.083       .  S
C266        C269   1.374       .  A
S267        C268   1.721       .  A
C268        C269   1.389       .  A
C269        H275   1.083       .  S
S270        C271   1.723       .  A
C271        C272   1.383       .  A
C272        H276   1.083       .  S
C277        S283   1.700       .  A
C277        C282   1.388       .  A
C277        C278   1.398   1_455  A
C278        C279   1.398       .  A
C278        H289   1.084       .  S
C279        C288   1.369       .  A
C279        C280   1.387       .  A
C280        S286   1.711       .  A
C280        C281   1.407       .  A
C281        C282   1.406   1_655  A
C281        H290   1.083       .  S
C282        C285   1.377       .  A
S283        C284   1.721       .  A
C284        C285   1.389       .  A
C285        H291   1.083       .  S
S286        C287   1.726       .  A
C287        C288   1.385       .  A
C288        H292   1.084       .  S
C293        S299   1.710       .  A
C293        C298   1.387       .  A
C293        C294   1.401   1_655  A
C294        C715   1.403       .  A
C294        H305   1.083       .  S
C295        C304   1.368       .  A
C295        C296   1.387       .  A
C295        C714   1.403   1_554  A
C296        S302   1.709       .  A
C296        C297   1.400   1_455  A
C297        C718   1.402   1_554  A
C297        H306   1.083       .  S
C298        C301   1.367       .  A
C298        C717   1.402       .  A
S299        C300   1.722       .  A
C300        C301   1.386       .  A
C301        H307   1.083       .  S
S302        C303   1.721       .  A
C303        C304   1.385       .  A
C304        H308   1.083       .  S
C309        S315   1.709       .  A
C309        C314   1.387       .  A
C309        C310   1.404       .  A
C310        C311   1.404       .  A
C310        H321   1.083       .  S
C311        C320   1.373       .  A
C311        C312   1.387       .  A
C312        S318   1.702       .  A
C312        C313   1.399       .  A
C313        C314   1.400       .  A
C313        H322   1.083       .  S
C314        C317   1.368       .  A
S315        C316   1.726       .  A
C316        C317   1.386       .  A
C317        H323   1.083       .  S
S318        C319   1.723       .  A
C319        C320   1.388       .  A
C320        H324   1.083       .  S
C325        S331   1.704       .  A
C325        C330   1.388       .  A
C325        C326   1.402       .  A
C326        C327   1.402   1_565  A
C326        H337   1.083       .  S
C327        C336   1.373       .  A
C327        C328   1.388       .  A
C328        S334   1.699       .  A
C328        C329   1.399       .  A
C329        C330   1.399   1_545  A
C329        H338   1.083       .  S
C330        C333   1.369       .  A
S331        C332   1.722       .  A
C332        C333   1.383       .  A
C333        H339   1.083       .  S
S334        C335   1.723       .  A
C335        C336   1.385       .  A
C336        H340   1.083       .  S
C341        S347   1.702       .  A
C341        C346   1.387       .  A
C341        C762   1.398   1_565  A
C342        C343   1.399       .  A
C342        C761   1.398   1_545  A
C342        H353   1.083       .  S
C343        C352   1.367       .  A
C343        C344   1.387       .  A
C344        S350   1.709       .  A
C344        C765   1.403       .  A
C345        C346   1.403   1_545  A
C345        C764   1.403   1_554  A
C345        H354   1.083       .  S
C346        C349   1.372       .  A
S347        C348   1.722       .  A
C348        C349   1.386       .  A
C349        H355   1.083       .  S
S350        C351   1.723       .  A
C351        C352   1.384       .  A
C352        H356   1.083       .  S
C357        S363   1.699       .  A
C357        C362   1.388       .  A
C357        C778   1.398       .  A
C358        C359   1.398       .  A
C358        C777   1.398   1_554  A
C358        H369   1.084       .  S
C359        C368   1.369       .  A
C359        C360   1.388       .  A
C360        S366   1.707       .  A
C360        C781   1.404   1_554  A
C361        C362   1.404       .  A
C361        C780   1.404       .  A
C361        H370   1.083       .  S
C362        C365   1.375       .  A
S363        C364   1.722       .  A
C364        C365   1.387       .  A
C365        H371   1.083       .  S
S366        C367   1.724       .  A
C367        C368   1.382       .  A
C368        H372   1.084       .  S
C373        S379   1.698       .  A
C373        C378   1.388       .  A
C373        C374   1.397       .  A
C374        C375   1.397       .  A
C374        H385   1.085       .  S
C375        C384   1.367       .  A
C375        C376   1.387       .  A
C376        S382   1.710       .  A
C376        C377   1.406       .  A
C377        C378   1.405       .  A
C377        H386   1.084       .  S
C378        C381   1.377       .  A
S379        C380   1.721       .  A
C380        C381   1.388       .  A
C381        H387   1.084       .  S
S382        C383   1.725       .  A
C383        C384   1.383       .  A
C384        H388   1.085       .  S
C389        S395   1.712       .  A
C389        C394   1.386       .  A
C389        C390   1.403       .  A
C390        C391   1.405       .  A
C390        H401   1.083       .  S
C391        C400   1.371       .  A
C391        C392   1.387       .  A
C392        S398   1.705       .  A
C392        C393   1.398       .  A
C393        C394   1.400       .  A
C393        H402   1.083       .  S
C394        C397   1.365       .  A
S395        C396   1.725       .  A
C396        C397   1.387       .  A
C397        H403   1.083       .  S
S398        C399   1.723       .  A
C399        C400   1.389       .  A
C400        H404   1.083       .  S
C405        S411   1.701       .  A
C405        C410   1.387       .  A
C405        C406   1.397       .  A
C406        C407   1.398       .  A
C406        H417   1.083       .  S
C407        C416   1.365       .  A
C407        C408   1.386       .  A
C408        S414   1.711       .  A
C408        C409   1.404       .  A
C409        C410   1.405       .  A
C409        H418   1.083       .  S
C410        C413   1.373       .  A
S411        C412   1.722       .  A
C412        C413   1.389       .  A
C413        H419   1.083       .  S
S414        C415   1.725       .  A
C415        C416   1.385       .  A
C416        H420   1.083       .  S
Fe421       O437   2.064       .  S
Fe421       O427   2.064       .  S
Fe421       O434   2.063       .  S
Fe421       O426   2.067       .  S
Fe421       O432   1.947       .  S
Fe422       O425   2.065       .  S
Fe422       O429   2.072       .  S
Fe422       O433   2.080       .  S
Fe422       O438   2.073       .  S
Fe422       O432   1.955       .  S
Fe423       O441   2.067       .  S
Fe423       O428   2.061       .  S
Fe423       O435   2.083       .  S
Fe423       O424   2.063       .  S
Fe423       O432   1.951       .  S
O424        C431   1.266       .  A
O425        C439   1.271       .  A
O426        C431   1.266       .  A
O427        C430   1.273       .  A
O428        C440   1.270       .  A
O429        C442   1.267       .  A
C430        O435   1.273       .  A
C430        C787   1.465       .  S
C431        C768   1.468       .  S
O433        C436   1.273       .  A
O434        C436   1.272       .  A
C436        C752   1.463       .  S
O437        C442   1.266       .  A
O438        C440   1.271       .  A
C439        O441   1.271       .  A
C439        C835   1.472       .  S
C440        C816   1.474       .  S
C442        C800   1.469       .  S
Fe443       O459   2.063       .  S
Fe443       O449   2.075       .  S
Fe443       O456   2.055       .  S
Fe443       O448   2.065       .  S
Fe443       O454   1.967       .  S
Fe444       O447   2.062       .  S
Fe444       O451   2.082       .  S
Fe444       O455   2.077       .  S
Fe444       O460   2.072       .  S
Fe444       O454   1.968       .  S
Fe445       O463   2.067       .  S
Fe445       O450   2.067       .  S
Fe445       O457   2.061       .  S
Fe445       O446   2.076       .  S
Fe445       O454   1.970       .  S
O446        C453   1.271       .  A
O447        C461   1.267       .  A
O448        C453   1.270       .  A
O449        C452   1.268       .  A
O450        C462   1.270       .  A
O451        C464   1.274       .  A
C452        O457   1.267       .  A
C452        C672   1.474       .  S
C453        C723   1.467       .  S
O455        C458   1.267       .  A
O456        C458   1.264       .  A
C458        C704   1.471       .  S
O459        C464   1.273       .  A
O460        C462   1.273       .  A
C461        O463   1.268       .  A
C461        C819   1.473       .  S
C462        C736   1.474       .  S
C464        C691   1.467       .  S
Fe465       O481   2.056       .  S
Fe465       O471   2.057       .  S
Fe465       O478   2.077       .  S
Fe465       O470   2.080       .  S
Fe465       O476   1.977       .  S
Fe466       O469   2.073       .  S
Fe466       O473   2.080       .  S
Fe466       O477   2.066       .  S
Fe466       O482   2.072       .  S
Fe466       O476   1.985       .  S
Fe467       O485   2.060       .  S
Fe467       O472   2.051       .  S
Fe467       O479   2.067       .  S
Fe467       O468   2.057       .  S
Fe467       O476   1.977       .  S
O468        C475   1.268       .  A
O469        C483   1.272       .  A
O470        C475   1.273       .  A
O471        C474   1.264       .  A
O472        C484   1.264       .  A
O473        C486   1.270       .  A
C474        O479   1.265       .  A
C474        C640   1.466       .  S
C475        C624   1.468       .  S
O477        C480   1.269       .  A
O478        C480   1.271       .  A
C480        C608   1.474       .  S
O481        C486   1.266       .  A
O482        C484   1.268       .  A
C483        O485   1.271       .  A
C483        C832   1.472       .  S
C484        C739   1.473       .  S
C486        C659   1.471       .  S
Fe487       O503   2.063       .  S
Fe487       O493   2.084       .  S
Fe487       O500   2.072       .  S
Fe487       O492   2.072       .  S
Fe487       O498   1.982       .  S
Fe488       O491   2.062       .  S
Fe488       O495   2.065       .  S
Fe488       O499   2.067       .  S
Fe488       O504   2.062       .  S
Fe488       O498   1.976       .  S
Fe489       O507   2.065       .  S
Fe489       O494   2.058       .  S
Fe489       O501   2.044       .  S
Fe489       O490   2.057       .  S
Fe489       O498   1.978       .  S
O490        C497   1.267       .  A
O491        C505   1.269       .  A
O492        C497   1.269       .  A
O493        C496   1.272       .  A
O494        C506   1.266       .  A
O495        C508   1.267       .  A
C496        O501   1.265       .  A
C496        C784   1.469       .  S
C497        C720   1.469       .  S
O499        C502   1.269       .  A
O500        C502   1.271       .  A
C502        C707   1.474       .  S
O503        C508   1.268       .  A
O504        C506   1.268       .  A
C505        O507   1.268       .  A
C505        C576   1.472       .  S
C506        C592   1.470       .  S
C508        C803   1.469       .  S
Fe509       O525   2.066       .  S
Fe509       O515   2.075       .  S
Fe509       O522   2.075       .  S
Fe509       O514   2.077       .  S
Fe509       O520   1.976       .  S
Fe510       O513   2.062       .  S
Fe510       O517   2.062       .  S
Fe510       O521   2.069       .  S
Fe510       O526   2.064       .  S
Fe510       O520   1.965       .  S
Fe511       O529   2.075       .  S
Fe511       O516   2.054       .  S
Fe511       O523   2.053       .  S
Fe511       O512   2.063       .  S
Fe511       O520   1.971       .  S
O512        C519   1.270       .  A
O513        C527   1.271       .  A
O514        C519   1.272       .  A
O515        C518   1.270       .  A
O516        C528   1.264       .  A
O517        C530   1.266       .  A
C518        O523   1.265       .  A
C518        C755   1.468       .  S
C519        C627   1.471       .  S
O521        C524   1.270       .  A
O522        C524   1.272       .  A
C524        C611   1.472       .  S
O525        C530   1.268       .  A
O526        C528   1.267       .  A
C527        O529   1.273       .  A
C527        C560   1.473       .  S
C528        C595   1.470       .  S
C530        C771   1.468       .  S
Fe531       O547   2.054       .  S
Fe531       O537   2.068       .  S
Fe531       O544   2.085       .  S
Fe531       O536   2.077       .  S
Fe531       O542   1.978       .  S
Fe532       O535   2.068       .  S
Fe532       O539   2.078       .  S
Fe532       O543   2.059       .  S
Fe532       O548   2.068       .  S
Fe532       O542   1.982       .  S
Fe533       O551   2.069       .  S
Fe533       O538   2.052       .  S
Fe533       O545   2.057       .  S
Fe533       O534   2.065       .  S
Fe533       O542   1.980       .  S
O534        C541   1.270       .  A
O535        C549   1.271       .  A
O536        C541   1.273       .  A
O537        C540   1.266       .  A
O538        C550   1.263       .  A
O539        C552   1.269       .  A
C540        O545   1.265       .  A
C540        C643   1.468       .  S
C541        C688   1.472       .  S
O543        C546   1.268       .  A
O544        C546   1.273       .  A
C546        C675   1.471       .  S
O547        C552   1.265       .  A
O548        C550   1.268       .  A
C549        O551   1.272       .  A
C549        C579   1.474       .  S
C550        C563   1.472       .  S
C552        C656   1.469       .  S
C553        S559   1.699       .  A
C553        C558   1.387       .  A
C553        C554   1.398       .  A
C554        C555   1.398       .  A
C554        H565   1.083       .  S
C555        C564   1.368       .  A
C555        C556   1.387       .  A
C556        S562   1.708       .  A
C556        C557   1.405       .  A
C557        C558   1.405       .  A
C557        H566   1.083       .  S
C558        C561   1.375       .  A
S559        C560   1.722       .  A
C560        C561   1.389       .  A
C561        H567   1.083       .  S
S562        C563   1.727       .  A
C563        C564   1.384       .  A
C564        H568   1.083       .  S
C569        S575   1.708       .  A
C569        C574   1.387       .  A
C569        C570   1.403       .  A
C570        C571   1.404       .  A
C570        H581   1.083       .  S
C571        C580   1.372       .  A
C571        C572   1.387       .  A
C572        S578   1.704       .  A
C572        C573   1.399       .  A
C573        C574   1.400       .  A
C573        H582   1.083       .  S
C574        C577   1.368       .  A
S575        C576   1.725       .  A
C576        C577   1.386       .  A
C577        H583   1.083       .  S
S578        C579   1.722       .  A
C579        C580   1.389       .  A
C580        H584   1.083       .  S
C585        S591   1.706       .  A
C585        C590   1.387       .  A
C585        C586   1.401       .  A
C586        C587   1.402       .  A
C586        H597   1.083       .  S
C587        C596   1.370       .  A
C587        C588   1.387       .  A
C588        S594   1.703       .  A
C588        C589   1.400       .  A
C589        C590   1.401       .  A
C589        H598   1.083       .  S
C590        C593   1.368       .  A
S591        C592   1.723       .  A
C592        C593   1.386       .  A
C593        H599   1.083       .  S
S594        C595   1.724       .  A
C595        C596   1.386       .  A
C596        H600   1.083       .  S
C601        S607   1.708       .  A
C601        C606   1.387       .  A
C601        C602   1.403   1_455  A
C602        H613   1.085       .  S
C603        C612   1.374       .  A
C603        C604   1.387       .  A
C604        S610   1.707       .  A
C604        C605   1.403   1_656  A
C605        H614   1.085       .  S
C606        C609   1.373       .  A
S607        C608   1.724       .  A
C608        C609   1.387       .  A
C609        H615   1.084       .  S
S610        C611   1.723       .  A
C611        C612   1.387       .  A
C612        H616   1.084       .  S
C617        S623   1.706       .  A
C617        C622   1.388       .  A
C617        C618   1.402   1_455  A
C618        C619   1.402       .  A
C618        H629   1.084       .  S
C619        C628   1.372       .  A
C619        C620   1.387       .  A
C620        S626   1.706       .  A
C620        C621   1.402   1_655  A
C621        C622   1.402       .  A
C621        H630   1.084       .  S
C622        C625   1.372       .  A
S623        C624   1.723       .  A
C624        C625   1.385       .  A
C625        H631   1.083       .  S
S626        C627   1.723       .  A
C627        C628   1.387       .  A
C628        H632   1.083       .  S
C633        S639   1.705       .  A
C633        C638   1.388       .  A
C633        C634   1.399       .  A
C634        C635   1.400       .  A
C634        H645   1.083       .  S
C635        C644   1.368       .  A
C635        C636   1.387       .  A
C636        S642   1.711       .  A
C636        C637   1.404       .  A
C637        C638   1.405       .  A
C637        H646   1.083       .  S
C638        C641   1.373       .  A
S639        C640   1.720       .  A
C640        C641   1.386       .  A
C641        H647   1.083       .  S
S642        C643   1.723       .  A
C643        C644   1.384       .  A
C644        H648   1.083       .  S
C649        S655   1.705       .  A
C649        C654   1.388       .  A
C649        C650   1.401       .  A
C650        H661   1.083       .  S
C651        C660   1.372       .  A
C651        C652   1.387       .  A
C652        S658   1.708       .  A
C652        C653   1.404       .  A
C653        H662   1.083       .  S
C654        C657   1.374       .  A
S655        C656   1.721       .  A
C656        C657   1.386       .  A
C657        H663   1.083       .  S
S658        C659   1.724       .  A
C659        C660   1.385       .  A
C660        H664   1.083       .  S
C665        S671   1.707       .  A
C665        C670   1.387       .  A
C666        C667   1.403   1_554  A
C666        H677   1.083       .  S
C667        C676   1.372       .  A
C667        C668   1.387       .  A
C668        S674   1.708       .  A
C669        C670   1.403       .  A
C669        H678   1.083       .  S
C670        C673   1.372       .  A
S671        C672   1.724       .  A
C672        C673   1.387       .  A
C673        H679   1.083       .  S
S674        C675   1.723       .  A
C675        C676   1.386       .  A
C676        H680   1.083       .  S
C681        S687   1.706       .  A
C681        C686   1.387       .  A
C681        C682   1.400   1_545  A
C682        C683   1.401       .  A
C682        H693   1.083       .  S
C683        C692   1.369       .  A
C683        C684   1.387       .  A
C684        S690   1.712       .  A
C684        C685   1.405   1_565  A
C685        C686   1.406       .  A
C685        H694   1.083       .  S
C686        C689   1.374       .  A
S687        C688   1.721       .  A
C688        C689   1.389       .  A
C689        H695   1.083       .  S
S690        C691   1.723       .  A
C691        C692   1.383       .  A
C692        H696   1.083       .  S
C697        S703   1.700       .  A
C697        C702   1.388       .  A
C697        C698   1.398   1_455  A
C698        C699   1.398       .  A
C698        H709   1.084       .  S
C699        C708   1.369       .  A
C699        C700   1.387       .  A
C700        S706   1.711       .  A
C700        C701   1.407       .  A
C701        C702   1.406   1_655  A
C701        H710   1.083       .  S
C702        C705   1.377       .  A
S703        C704   1.721       .  A
C704        C705   1.389       .  A
C705        H711   1.083       .  S
S706        C707   1.726       .  A
C707        C708   1.385       .  A
C708        H712   1.084       .  S
C713        S719   1.710       .  A
C713        C718   1.387       .  A
C713        C714   1.401   1_655  A
C714        H725   1.083       .  S
C715        C724   1.368       .  A
C715        C716   1.387       .  A
C716        S722   1.709       .  A
C716        C717   1.400   1_455  A
C717        H726   1.083       .  S
C718        C721   1.367       .  A
S719        C720   1.722       .  A
C720        C721   1.386       .  A
C721        H727   1.083       .  S
S722        C723   1.721       .  A
C723        C724   1.385       .  A
C724        H728   1.083       .  S
C729        S735   1.709       .  A
C729        C734   1.387       .  A
C729        C730   1.404       .  A
C730        C731   1.404       .  A
C730        H741   1.083       .  S
C731        C740   1.373       .  A
C731        C732   1.387       .  A
C732        S738   1.702       .  A
C732        C733   1.399       .  A
C733        C734   1.400       .  A
C733        H742   1.083       .  S
C734        C737   1.368       .  A
S735        C736   1.726       .  A
C736        C737   1.386       .  A
C737        H743   1.083       .  S
S738        C739   1.723       .  A
C739        C740   1.388       .  A
C740        H744   1.083       .  S
C745        S751   1.704       .  A
C745        C750   1.388       .  A
C745        C746   1.402       .  A
C746        C747   1.402   1_565  A
C746        H757   1.083       .  S
C747        C756   1.373       .  A
C747        C748   1.388       .  A
C748        S754   1.699       .  A
C748        C749   1.399       .  A
C749        C750   1.399   1_545  A
C749        H758   1.083       .  S
C750        C753   1.369       .  A
S751        C752   1.722       .  A
C752        C753   1.383       .  A
C753        H759   1.083       .  S
S754        C755   1.723       .  A
C755        C756   1.385       .  A
C756        H760   1.083       .  S
C761        S767   1.702       .  A
C761        C766   1.387       .  A
C762        C763   1.399   1_554  A
C762        H773   1.083   1_554  S
C763        C772   1.367       .  A
C763        C764   1.387       .  A
C764        S770   1.709       .  A
C765        C766   1.403   1_545  A
C765        H774   1.083       .  S
C766        C769   1.372       .  A
S767        C768   1.722       .  A
C768        C769   1.386       .  A
C769        H775   1.083       .  S
S770        C771   1.723       .  A
C771        C772   1.384       .  A
C772        H776   1.083       .  S
C777        S783   1.699       .  A
C777        C782   1.388       .  A
C778        C779   1.398       .  A
C778        H789   1.084       .  S
C779        C788   1.369       .  A
C779        C780   1.388       .  A
C780        S786   1.707       .  A
C781        C782   1.404       .  A
C781        H790   1.083       .  S
C782        C785   1.375       .  A
S783        C784   1.722       .  A
C784        C785   1.387       .  A
C785        H791   1.083       .  S
S786        C787   1.724       .  A
C787        C788   1.382       .  A
C788        H792   1.084       .  S
C793        S799   1.698       .  A
C793        C798   1.388       .  A
C793        C794   1.397       .  A
C794        C795   1.397       .  A
C794        H805   1.085       .  S
C795        C804   1.367       .  A
C795        C796   1.387       .  A
C796        S802   1.710       .  A
C796        C797   1.406       .  A
C797        C798   1.405       .  A
C797        H806   1.084       .  S
C798        C801   1.377       .  A
S799        C800   1.721       .  A
C800        C801   1.388       .  A
C801        H807   1.084       .  S
S802        C803   1.725       .  A
C803        C804   1.383       .  A
C804        H808   1.085       .  S
C809        S815   1.712       .  A
C809        C814   1.386       .  A
C809        C810   1.403       .  A
C810        C811   1.405       .  A
C810        H821   1.083       .  S
C811        C820   1.371       .  A
C811        C812   1.387       .  A
C812        S818   1.705       .  A
C812        C813   1.398       .  A
C813        C814   1.400       .  A
C813        H822   1.083       .  S
C814        C817   1.365       .  A
S815        C816   1.725       .  A
C816        C817   1.387       .  A
C817        H823   1.083       .  S
S818        C819   1.723       .  A
C819        C820   1.389       .  A
C820        H824   1.083       .  S
C825        S831   1.701       .  A
C825        C830   1.387       .  A
C825        C826   1.397       .  A
C826        C827   1.398       .  A
C826        H837   1.083       .  S
C827        C836   1.365       .  A
C827        C828   1.386       .  A
C828        S834   1.711       .  A
C828        C829   1.404       .  A
C829        C830   1.405       .  A
C829        H838   1.083       .  S
C830        C833   1.373       .  A
S831        C832   1.722       .  A
C832        C833   1.389       .  A
C833        H839   1.083       .  S
S834        C835   1.725       .  A
C835        C836   1.385       .  A
C836        H840   1.083       .  S
