geometry optimzed in LAMMPS
_audit_creation_date              2020-12-01 
_audit_creation_method            'lammps2cif' 
_symmetry_space_group_name_H-M    'P1' 
_symmetry_Int_Tables_number       1 
_symmetry_cell_setting            triclinic 
loop_ 
_symmetry_equiv_pos_as_xyz 
  x,y,z 
_cell_length_a                    47.31642323 
_cell_length_b                    47.29631873519796 
_cell_length_c                    47.303952022344994 
_cell_angle_alpha                 89.90987939771361 
_cell_angle_beta                  89.87587996039629 
_cell_angle_gamma                 90.20581520886091 
loop_ 
_atom_site_label 
_atom_site_type_symbol 
_atom_site_fract_x 
_atom_site_fract_y 
_atom_site_fract_z 
_atom_site_charge 
O1          O  0.66519511  0.37216821  0.98138940    -0.72800
O2          O  0.66925608  0.29116526  0.98015829    -0.72800
O3          O  0.62674548  0.32998025  0.97935488    -0.72800
O4          O  0.70766622  0.33354823  0.98244794    -0.72900
O5          O  0.70631271  0.33208628  0.02940510    -0.72800
O6          O  0.62521881  0.32982649  0.02638077    -0.72800
O7          O  0.66675362  0.29038034  0.02720696    -0.72800
O8          O  0.66451758  0.37152567  0.02848448    -0.72800
Ni9        Ni  0.66730419  0.33173117  0.97918438     1.25400
Ni10       Ni  0.66564728  0.33091028  0.02954482     1.25400
C11         C  0.66402543  0.38521999  0.00507669     0.89400
C12         C  0.66857127  0.27739372  0.00350050     0.89400
C13         C  0.61253140  0.32977847  0.00245473     0.89400
C14         C  0.72050100  0.33313734  0.00629792     0.89600
O15         O  0.38661540  0.33004434  0.97583591    -0.72800
O16         O  0.30610361  0.33124498  0.97222658    -0.72800
O17         O  0.34721920  0.37115890  0.97450161    -0.72800
O18         O  0.34571722  0.29016179  0.97378864    -0.72900
O19         O  0.34443872  0.28987027  0.02078471    -0.72800
O20         O  0.34364692  0.37071929  0.02154062    -0.72800
O21         O  0.30371246  0.32992007  0.01921149    -0.72800
O22         O  0.38465465  0.33087762  0.02292025    -0.72800
Ni23       Ni  0.34647193  0.33067737  0.97242644     1.25400
Ni24       Ni  0.34404552  0.33030620  0.02281060     1.25400
C25         C  0.39895766  0.33049548  0.99986908     0.89400
C26         C  0.29152917  0.33059125  0.99504763     0.89400
C27         C  0.34547187  0.38423439  0.99814193     0.89400
C28         C  0.34509633  0.27654976  0.99722862     0.89600
O29         O  0.62712573  0.65397523  0.97678397    -0.72800
O30         O  0.70788990  0.65113796  0.97842692    -0.72800
O31         O  0.66601403  0.61177080  0.97731400    -0.72800
O32         O  0.66909648  0.69292610  0.97820597    -0.72900
O33         O  0.66777492  0.69207807  0.02525395    -0.72800
O34         O  0.66488586  0.61134312  0.02444051    -0.72800
O35         O  0.70701374  0.65062423  0.02542705    -0.72800
O36         O  0.62600819  0.65273576  0.02394390    -0.72800
Ni37       Ni  0.66757250  0.65242871  0.97599732     1.25400
Ni38       Ni  0.66642436  0.65167691  0.02643128     1.25400
C39         C  0.61330583  0.65372710  0.00007786     0.89400
C40         C  0.72092330  0.65079699  0.00212114     0.89400
C41         C  0.66469021  0.59822264  0.00080203     0.89400
C42         C  0.66884014  0.70590541  0.00197622     0.89600
O43         O  0.34590433  0.61146533  0.97553365    -0.72800
O44         O  0.34689305  0.69261574  0.97661840    -0.72800
O45         O  0.38677050  0.65196360  0.97558181    -0.72800
O46         O  0.30595703  0.65274320  0.97628701    -0.72900
O47         O  0.30623155  0.65161098  0.02334651    -0.72800
O48         O  0.38715030  0.65171569  0.02258690    -0.72800
O49         O  0.34682804  0.69191650  0.02362037    -0.72800
O50         O  0.34665788  0.61097448  0.02253871    -0.72800
Ni51       Ni  0.34636276  0.65214412  0.97433016     1.25400
Ni52       Ni  0.34671887  0.65145708  0.02468351     1.25400
C53         C  0.34629930  0.59772244  0.99893642     0.89400
C54         C  0.34695696  0.70573223  0.00031588     0.89400
C55         C  0.40039746  0.65232717  0.99893608     0.89400
C56         C  0.29271262  0.65273314  0.99992471     0.89600
O57         O  0.62497560  0.97116817  0.66779862    -0.72800
O58         O  0.70570543  0.96893039  0.66447860    -0.72800
O59         O  0.66690601  0.96916779  0.70657818    -0.72800
O60         O  0.66353342  0.97110235  0.62565913    -0.72900
O61         O  0.66546323  0.01816625  0.62669953    -0.72800
O62         O  0.66803135  0.01614993  0.70758619    -0.72800
O63         O  0.70724445  0.01589547  0.66582023    -0.72800
O64         O  0.62618533  0.01815773  0.66852055    -0.72800
Ni65       Ni  0.66523451  0.96844218  0.66608118     1.25400
Ni66       Ni  0.66677931  0.01877442  0.66718161     1.25400
C67         C  0.61212029  0.99492923  0.66860638     0.89400
C68         C  0.71995736  0.99200459  0.66487176     0.89400
C69         C  0.66800555  0.99234343  0.72054672     0.89400
C70         C  0.66397132  0.99497799  0.61281917     0.89600
O71         O  0.34474178  0.01457636  0.61898287    -0.72800
O72         O  0.34577276  0.01627134  0.70012933    -0.72800
O73         O  0.38577584  0.01604226  0.65906891    -0.72800
O74         O  0.30510662  0.01521780  0.65991344    -0.72900
O75         O  0.30507715  0.96820444  0.65888857    -0.72800
O76         O  0.38610046  0.96898645  0.66258995    -0.72800
O77         O  0.34393380  0.96928612  0.70085421    -0.72800
O78         O  0.34745919  0.96748391  0.62021523    -0.72800
Ni79       Ni  0.34536585  0.01721726  0.65948041     1.25400
Ni80       Ni  0.34564646  0.96679861  0.66063908     1.25400
C81         C  0.34601443  0.99067280  0.60633431     0.89400
C82         C  0.34484293  0.99292463  0.71395049     0.89400
C83         C  0.39920071  0.99272424  0.66144647     0.89400
C84         C  0.29165137  0.99172207  0.65901784     0.89600
O85         O  0.39139822  0.01351312  0.34000638    -0.72800
O86         O  0.31062247  0.01749520  0.33855596    -0.72800
O87         O  0.35006908  0.01431234  0.38003522    -0.72800
O88         O  0.35169953  0.01659046  0.29895707    -0.72900
O89         O  0.34939647  0.96964217  0.29784428    -0.72800
O90         O  0.34784530  0.96736859  0.37881763    -0.72800
O91         O  0.30837811  0.97050575  0.33747790    -0.72800
O92         O  0.38918455  0.96647172  0.33896176    -0.72800
Ni93       Ni  0.35109064  0.01714182  0.33949596     1.25400
Ni94       Ni  0.34865745  0.96683378  0.33826595     1.25400
C95         C  0.40365790  0.98940624  0.33941795     0.89400
C96         C  0.29610896  0.99461711  0.33741005     0.89400
C97         C  0.34847647  0.99047328  0.39292553     0.89400
C98         C  0.35030739  0.99347298  0.28492817     0.89600
O99         O  0.66907860  0.01610747  0.38548078    -0.72800
O100        O  0.67111446  0.01557910  0.30482080    -0.72800
O101        O  0.62960490  0.01419403  0.34432667    -0.72800
O102        O  0.71062869  0.01690370  0.34612555    -0.72900
O103        O  0.71188441  0.96991456  0.34669491    -0.72800
O104        O  0.63107236  0.96712437  0.34441562    -0.72800
O105        O  0.67253282  0.96852117  0.30495519    -0.72800
O106        O  0.67026803  0.96908138  0.38616932    -0.72800
Ni107      Ni  0.67007250  0.01734371  0.34515874     1.25400
Ni108      Ni  0.67151835  0.96697179  0.34557523     1.25400
C109        C  0.66924645  0.99280863  0.39925189     0.89400
C110        C  0.67193349  0.99207918  0.29148223     0.89400
C111        C  0.61695557  0.99016294  0.34406911     0.89400
C112        C  0.72472237  0.99380286  0.34681593     0.89600
O113        O  0.98506370  0.61288029  0.65880181    -0.72800
O114        O  0.98358827  0.69374014  0.65896596    -0.72800
O115        O  0.98563258  0.65345757  0.61831612    -0.72800
O116        O  0.98321237  0.65311464  0.69934578    -0.72900
O117        O  0.03018903  0.65349613  0.70046078    -0.72800
O118        O  0.03263861  0.65507843  0.61957600    -0.72800
O119        O  0.03054215  0.69464846  0.66070979    -0.72800
O120        O  0.03219222  0.61383614  0.65911821    -0.72800
Ni121      Ni  0.98269515  0.65325536  0.65878524     1.25400
Ni122      Ni  0.03305377  0.65429648  0.66002294     1.25400
C123        C  0.00885002  0.60005812  0.65880685     0.89400
C124        C  0.00683884  0.70763969  0.66012146     0.89400
C125        C  0.00954215  0.65441843  0.60553097     0.89400
C126        C  0.00635296  0.65323226  0.71338848     0.89600
O127        O  0.03440666  0.33375907  0.61985315    -0.72800
O128        O  0.03267261  0.33064294  0.70100173    -0.72800
O129        O  0.03285693  0.29184155  0.65894934    -0.72800
O130        O  0.03433420  0.37291061  0.66175777    -0.72900
O131        O  0.98733678  0.37339430  0.66109621    -0.72800
O132        O  0.98578973  0.29265546  0.65773183    -0.72800
O133        O  0.98561782  0.33129584  0.69998359    -0.72800
O134        O  0.98743348  0.33466731  0.61927013    -0.72800
Ni135      Ni  0.03527518  0.33230277  0.66046301     1.25400
Ni136      Ni  0.98491519  0.33305557  0.65954288     1.25400
C137        C  0.01109194  0.33448752  0.60609088     0.89400
C138        C  0.00879166  0.33022442  0.71387963     0.89400
C139        C  0.00905170  0.27890137  0.65762208     0.89400
C140        C  0.01100323  0.38661470  0.66149018     0.89600
O141        O  0.03361508  0.61631949  0.33762880    -0.72800
O142        O  0.03551635  0.69734851  0.33778445    -0.72800
O143        O  0.03552655  0.65644099  0.37819853    -0.72800
O144        O  0.03356547  0.65669940  0.29740642    -0.72900
O145        O  0.98654209  0.65663066  0.29856144    -0.72800
O146        O  0.98848153  0.65817246  0.37926589    -0.72800
O147        O  0.98849802  0.69798952  0.33805768    -0.72800
O148        O  0.98655669  0.61702908  0.33980325    -0.72800
Ni149      Ni  0.03623592  0.65670942  0.33772456     1.25400
Ni150      Ni  0.98584859  0.65752927  0.33896933     1.25400
C151        C  0.00983784  0.60333183  0.33880684     0.89400
C152        C  0.01223815  0.71114372  0.33765334     0.89400
C153        C  0.01227454  0.65724603  0.39207985     0.89400
C154        C  0.00974891  0.65618027  0.28459916     0.89600
O155        O  0.98747545  0.37814768  0.33901620    -0.72800
O156        O  0.98585831  0.29747798  0.33790030    -0.72800
O157        O  0.98655954  0.33745841  0.37921927    -0.72800
O158        O  0.98700693  0.33865493  0.29802519    -0.72900
O159        O  0.03401579  0.33855597  0.29852127    -0.72800
O160        O  0.03368388  0.33558677  0.37934207    -0.72800
O161        O  0.03288434  0.29677952  0.33747844    -0.72800
O162        O  0.03458794  0.37754581  0.34019054    -0.72800
Ni163      Ni  0.98503526  0.33792548  0.33859292     1.25400
Ni164      Ni  0.03546284  0.33708868  0.33891604     1.25400
C165        C  0.01122678  0.39113499  0.33960522     0.89400
C166        C  0.00911762  0.28373813  0.33704056     0.89400
C167        C  0.01007580  0.33626487  0.39257318     0.89400
C168        C  0.01070140  0.33907820  0.28481578     0.89600
N169        N  0.97516133  0.32753433  0.97013769    -0.34900
N170        N  0.97846502  0.33156125  0.03128940    -0.55500
N171        N  0.03968304  0.32434508  0.02816133    -0.34900
N172        N  0.03628916  0.32335099  0.96689950    -0.55500
C173        C  0.94851572  0.33569027  0.97650254     0.28600
C174        C  0.97944899  0.33286506  0.94231757     0.28600
C175        C  0.03670823  0.33212195  0.05549533     0.28600
C176        C  0.06724764  0.32766232  0.02127144     0.28600
C177        C  0.95022392  0.32793979  0.02847012     0.37300
C178        C  0.98437214  0.32747973  0.05895444     0.37300
C179        C  0.03002111  0.31891658  0.93945108     0.37300
C180        C  0.06381218  0.31667825  0.96997368     0.37300
C181        C  0.93563606  0.34619820  0.95237002    -0.20200
C182        C  0.95515959  0.34440975  0.93079883    -0.20200
C183        C  0.06281364  0.33999724  0.06628895    -0.20200
C184        C  0.08209462  0.33718609  0.04468358    -0.20200
C185        C  0.93820175  0.32152367  0.05446805    -0.21300
C186        C  0.95980110  0.32143262  0.07379733    -0.21300
C187        C  0.05364392  0.30929062  0.92502506    -0.21300
C188        C  0.07508899  0.30785710  0.94441159    -0.21300
C189        C  0.93498982  0.33219014  0.00307176    -0.16600
C190        C  0.00406839  0.32598696  0.92673542    -0.16600
C191        C  0.07957673  0.32133033  0.99477127    -0.16600
C192        C  0.01134509  0.33089688  0.07134418    -0.16600
H193        H  0.91429450  0.35412015  0.95045094     0.16300
H194        H  0.95175513  0.35061582  0.90904186     0.16300
H195        H  0.06752317  0.34694400  0.08755844     0.16300
H196        H  0.10451171  0.34159072  0.04610131     0.16300
H197        H  0.91613685  0.31759430  0.05913078     0.14600
H198        H  0.95766134  0.31741113  0.09623435     0.14600
H199        H  0.05542502  0.30445566  0.90273467     0.14600
H200        H  0.09668289  0.30173433  0.94004999     0.14600
H201        H  0.98840182  0.31584717  0.98325574     0.27800
H202        H  0.02429238  0.31457974  0.01578716     0.27800
N203        N  0.03803895  0.64673761  0.02986463    -0.34900
N204        N  0.03739388  0.65275987  0.96864220    -0.55500
N205        N  0.97584445  0.65155641  0.96970204    -0.34900
N206        N  0.97649420  0.64851429  0.03080769    -0.55500
C207        C  0.06569495  0.65204889  0.02482697     0.28600
C208        C  0.03335090  0.65162464  0.05764709     0.28600
C209        C  0.98048206  0.65952174  0.94260186     0.28600
C210        C  0.94825936  0.65641399  0.97550768     0.28600
C211        C  0.06520371  0.64736185  0.97238636     0.37300
C212        C  0.03244945  0.65086236  0.94054628     0.37300
C213        C  0.98134192  0.64324051  0.05840610     0.37300
C214        C  0.94861742  0.64407759  0.02664239     0.37300
C215        C  0.07887690  0.65982464  0.04981678    -0.20200
C216        C  0.05843004  0.65968956  0.07050670    -0.20200
C217        C  0.95549756  0.66952128  0.93103776    -0.20200
C218        C  0.93514874  0.66747136  0.95177653    -0.20200
C219        C  0.07807953  0.64241827  0.94654788    -0.21300
C220        C  0.05733239  0.64449266  0.92640010    -0.21300
C221        C  0.95643356  0.63556486  0.07190415    -0.21300
C222        C  0.93568059  0.63596484  0.05171203    -0.21300
C223        C  0.07957140  0.64900924  0.99851895    -0.16600
C224        C  0.00745492  0.64747843  0.07204324    -0.16600
C225        C  0.93429775  0.64971550  0.00115315    -0.16600
C226        C  0.00604385  0.65591327  0.92737536    -0.16600
H227        H  0.10094662  0.66505252  0.05287312     0.16300
H228        H  0.06174164  0.66469166  0.09257739     0.16300
H229        H  0.95216076  0.67710678  0.90970865     0.16300
H230        H  0.91314249  0.67321980  0.94954126     0.16300
H231        H  0.10016303  0.63797675  0.94260560     0.14600
H232        H  0.06033330  0.64174616  0.90389160     0.14600
H233        H  0.95346649  0.63058431  0.09405739     0.14600
H234        H  0.91350783  0.63144299  0.05522672     0.14600
H235        H  0.02396664  0.63748952  0.01581420     0.27800
H236        H  0.98973387  0.64021007  0.98227492     0.27800
N237        N  0.97988105  0.96763658  0.34187684    -0.34900
N238        N  0.97976867  0.02924073  0.34334382    -0.55500
N239        N  0.04089955  0.02925581  0.33485368    -0.34900
N240        N  0.04116075  0.96766989  0.33689116    -0.55500
C241        C  0.95276314  0.97248181  0.34961467     0.28600
C242        C  0.98514829  0.93985892  0.34634222     0.28600
C243        C  0.03641370  0.05689530  0.34053706     0.28600
C244        C  0.06890140  0.02451663  0.33790156     0.28600
C245        C  0.95159638  0.02466591  0.34180328     0.37300
C246        C  0.98382038  0.05704341  0.33801380     0.37300
C247        C  0.03657724  0.93955623  0.33417841     0.37300
C248        C  0.06881894  0.97216260  0.33108858     0.37300
C249        C  0.94059132  0.94744266  0.35898883    -0.20200
C250        C  0.96100002  0.92687007  0.35690499    -0.20200
C251        C  0.06187782  0.06997962  0.34690339    -0.20200
C252        C  0.08238057  0.04953829  0.34530044    -0.20200
C253        C  0.93769058  0.04975601  0.33597274    -0.21300
C254        C  0.95811389  0.07027900  0.33359547    -0.21300
C255        C  0.06154211  0.92609809  0.32691762    -0.21300
C256        C  0.08195602  0.94673171  0.32501071    -0.21300
C257        C  0.93809544  0.99837872  0.34658857    -0.16600
C258        C  0.01063341  0.92557706  0.33979155    -0.16600
C259        C  0.08287025  0.99855300  0.33315901    -0.16600
C260        C  0.01023504  0.07100482  0.33855980    -0.16600
H261        H  0.91910530  0.94424690  0.36625313     0.16300
H262        H  0.95826648  0.90478458  0.36231571     0.16300
H263        H  0.06534937  0.09200587  0.35206979     0.16300
H264        H  0.10471563  0.05280207  0.34903622     0.16300
H265        H  0.91517506  0.05296703  0.33368079     0.14600
H266        H  0.95444388  0.09242639  0.32918131     0.14600
H267        H  0.06482475  0.90369187  0.32372819     0.14600
H268        H  0.10402950  0.94334683  0.32005831     0.14600
H269        H  0.99285873  0.98165740  0.33099813     0.27800
H270        H  0.02622901  0.01529343  0.32636109     0.27800
N271        N  0.03601338  0.02476294  0.65737320    -0.34900
N272        N  0.03758103  0.96337510  0.66287996    -0.55500
N273        N  0.97627499  0.96209789  0.66283898    -0.34900
N274        N  0.97465489  0.02339771  0.66030457    -0.55500
C275        C  0.06386582  0.02068529  0.66220893     0.28600
C276        C  0.03056792  0.05244127  0.66205779     0.28600
C277        C  0.98197496  0.93516147  0.67055057     0.28600
C278        C  0.94862863  0.96671171  0.66842788     0.28600
C279        C  0.06500866  0.96830513  0.65658477     0.37300
C280        C  0.03357502  0.93517352  0.66046392     0.37300
C281        C  0.97842968  0.05118551  0.65472851     0.37300
C282        C  0.94686310  0.01796056  0.65651791     0.37300
C283        C  0.07637875  0.04612885  0.66976499    -0.20200
C284        C  0.05537733  0.06618163  0.66963058    -0.20200
C285        C  0.95765586  0.92248872  0.68106917    -0.20200
C286        C  0.93659294  0.94239931  0.67970181    -0.20200
C287        C  0.07854214  0.94308065  0.65039222    -0.21300
C288        C  0.05861713  0.92206595  0.65292684    -0.21300
C289        C  0.95285952  0.06354542  0.64773203    -0.21300
C290        C  0.93287055  0.04245288  0.64874231    -0.21300
C291        C  0.07852474  0.99492217  0.65855594    -0.16600
C292        C  0.00424144  0.06593151  0.65783623    -0.16600
C293        C  0.93361066  0.99171352  0.66208989    -0.16600
C294        C  0.00787308  0.92101160  0.66615291    -0.16600
H295        H  0.09840920  0.04992278  0.67463531     0.16300
H296        H  0.05817706  0.08841430  0.67427038     0.16300
H297        H  0.95523616  0.90097083  0.68854324     0.16300
H298        H  0.91480767  0.93922116  0.68600359     0.16300
H299        H  0.10055438  0.94008567  0.64492871     0.14600
H300        H  0.06219380  0.89970803  0.64972110     0.14600
H301        H  0.94893989  0.08551711  0.64272244     0.14600
H302        H  0.91051520  0.04496725  0.64469542     0.14600
H303        H  0.02232864  0.01021895  0.64829130     0.27800
H304        H  0.98942505  0.97527620  0.65114871     0.27800
N305        N  0.66583618  0.02243212  0.03621197    -0.34900
N306        N  0.66913574  0.02162851  0.97507242    -0.55500
N307        N  0.66960294  0.96013523  0.97636566    -0.34900
N308        N  0.66395405  0.96090177  0.03756250    -0.55500
C309        C  0.66154815  0.05013384  0.03049728     0.28600
C310        C  0.65862100  0.01800457  0.06354513     0.28600
C311        C  0.66551944  0.96473293  0.94845029     0.28600
C312        C  0.66338395  0.93267539  0.98147988     0.28600
C313        C  0.67409177  0.04944580  0.97935501     0.37300
C314        C  0.67529253  0.01649281  0.94767043     0.37300
C315        C  0.66668941  0.96592848  0.06553539     0.37300
C316        C  0.66869710  0.93298919  0.03383347     0.37300
C317        C  0.65151059  0.06352772  0.05454683    -0.20200
C318        C  0.64971527  0.04326414  0.07542257    -0.20200
C319        C  0.65681542  0.93983907  0.93562676    -0.20200
C320        C  0.65565000  0.91956415  0.95642764    -0.20200
C321        C  0.68324893  0.06208879  0.95450235    -0.21300
C322        C  0.68403175  0.04118618  0.93441671    -0.21300
C323        C  0.67264849  0.94096834  0.07971664    -0.21300
C324        C  0.67389389  0.92008760  0.05961795    -0.21300
C325        C  0.66846888  0.06396356  0.00481462    -0.16600
C326        C  0.66239506  0.99243067  0.07863745    -0.16600
C327        C  0.66647478  0.91871477  0.00772350    -0.16600
C328        C  0.67103911  0.99032539  0.93394250    -0.16600
H329        H  0.64657422  0.08571818  0.05699329     0.16300
H330        H  0.64316360  0.04688293  0.09704517     0.16300
H331        H  0.65219032  0.93648026  0.91348491     0.16300
H332        H  0.65001793  0.89760081  0.95330573     0.16300
H333        H  0.68845316  0.08413620  0.95109633     0.14600
H334        H  0.69000908  0.04391750  0.91248016     0.14600
H335        H  0.67550242  0.93802449  0.10222339     0.14600
H336        H  0.67786308  0.89791362  0.06358861     0.14600
H337        H  0.67661785  0.00827608  0.02342307     0.27800
H338        H  0.67930146  0.97395332  0.99038884     0.27800
N339        N  0.33995011  0.02213412  0.02945106    -0.34900
N340        N  0.34229792  0.96086185  0.03052173    -0.55500
N341        N  0.34058757  0.96004108  0.96898421    -0.34900
N342        N  0.34139943  0.02141633  0.96809481    -0.55500
C343        C  0.34653539  0.01752034  0.05687586     0.28600
C344        C  0.34578711  0.04959287  0.02390642     0.28600
C345        C  0.34640204  0.93258949  0.97442959     0.28600
C346        C  0.34642977  0.96469481  0.94134378     0.28600
C347        C  0.33809257  0.96564662  0.05835506     0.37300
C348        C  0.33822674  0.93288953  0.02651013     0.37300
C349        C  0.33758209  0.04940623  0.97197504     0.37300
C350        C  0.33856143  0.01677656  0.94010509     0.37300
C351        C  0.35644701  0.04236364  0.06890678    -0.20200
C352        C  0.35588514  0.06263179  0.04811491    -0.20200
C353        C  0.35551157  0.91950604  0.94983674    -0.20200
C354        C  0.35551155  0.93976827  0.92895196    -0.20200
C355        C  0.33138817  0.94060140  0.07211104    -0.21300
C356        C  0.33155208  0.91980279  0.05191974    -0.21300
C357        C  0.33240099  0.06263318  0.94633819    -0.21300
C358        C  0.33312484  0.04195194  0.92610768    -0.21300
C359        C  0.34234542  0.99194071  0.07179084    -0.16600
C360        C  0.34125142  0.06355254  0.99792070    -0.16600
C361        C  0.34282068  0.99052732  0.92671254    -0.16600
C362        C  0.34248185  0.91868548  0.00065004    -0.16600
H363        H  0.36324876  0.04561697  0.09049262     0.16300
H364        H  0.36222147  0.08450288  0.05055849     0.16300
H365        H  0.36151714  0.89760664  0.94718816     0.16300
H366        H  0.36154322  0.93650688  0.90711715     0.16300
H367        H  0.32724702  0.93755257  0.09442103     0.14600
H368        H  0.32757341  0.89754407  0.05558667     0.14600
H369        H  0.32910932  0.08494492  0.94250280     0.14600
H370        H  0.33042907  0.04517644  0.90361601     0.14600
H371        H  0.32913298  0.00830788  0.01627237     0.27800
H372        H  0.33047234  0.97392479  0.98257933     0.27800
C373        C  0.03325920  0.20794969  0.32745716     0.14300
C374        C  0.00853882  0.19280203  0.33382756     0.01300
C375        C  0.98366888  0.20752326  0.34036421     0.16300
C376        C  0.98364345  0.23707216  0.34110228     0.25700
C377        C  0.00864332  0.25242931  0.33539682    -0.40700
C378        C  0.03335005  0.23745462  0.32813825     0.32700
C379        C  0.00906084  0.16162375  0.33486500     0.01400
F380        F  0.95939508  0.19320610  0.34612842    -0.13000
F381        F  0.05771091  0.25126013  0.32158538    -0.13500
C382        C  0.00405329  0.14757322  0.36058839     0.16300
C383        C  0.00469424  0.11807851  0.36185040     0.25700
C384        C  0.01046161  0.10230567  0.33743256    -0.40600
C385        C  0.01590163  0.11629369  0.31178316     0.32700
C386        C  0.01516729  0.14582198  0.31047601     0.14400
F387        F  0.99905882  0.16251837  0.38455872    -0.13000
F388        F  0.02157921  0.10126689  0.28802046    -0.13500
F389        F  0.99985330  0.10484051  0.38688486    -0.15700
F390        F  0.01999630  0.15899879  0.28539117    -0.14300
F391        F  0.05759893  0.19409260  0.32136037    -0.14300
F392        F  0.95924393  0.25049305  0.34792265    -0.15700
C393        C  0.98735844  0.34526126  0.20798111     0.14300
C394        C  0.01287696  0.34052695  0.19343846     0.01300
C395        C  0.03771440  0.33637841  0.20909279     0.16300
C396        C  0.03696884  0.33585710  0.23861576     0.25700
C397        C  0.01136621  0.34009513  0.25335221    -0.40700
C398        C  0.98661090  0.34524058  0.23759362     0.32700
C399        C  0.01347004  0.33870343  0.16205980     0.01400
F400        F  0.06289080  0.33285597  0.19574660    -0.13000
F401        F  0.96155665  0.35017536  0.25070689    -0.13500
C402        C  0.00233911  0.36058351  0.14526864     0.16300
C403        C  0.00214032  0.35821805  0.11578070     0.25700
C404        C  0.01295020  0.33395252  0.10259043    -0.40600
C405        C  0.02458797  0.31234748  0.11922151     0.32700
C406        C  0.02484492  0.31467474  0.14869224     0.14400
F407        F  0.99190181  0.38436963  0.15739276    -0.13000
F408        F  0.03510775  0.28870157  0.10689354    -0.13500
F409        F  0.99136540  0.37959680  0.09998839    -0.15700
F410        F  0.03544316  0.29301452  0.16422711    -0.14300
F411        F  0.96290533  0.34909579  0.19352133    -0.14300
F412        F  0.06142226  0.33069855  0.25264154    -0.15700
C413        C  0.03138555  0.46685898  0.35537296     0.14300
C414        C  0.01008667  0.48158295  0.34098541     0.01300
C415        C  0.98961651  0.46659174  0.32569029     0.16300
C416        C  0.99025678  0.43711920  0.32493691     0.25700
C417        C  0.01141442  0.42223767  0.33953930    -0.40700
C418        C  0.03221198  0.43734693  0.35447027     0.32700
C419        C  0.00993565  0.51267469  0.34077254     0.01400
F420        F  0.96935965  0.48058477  0.31102459    -0.13000
F421        F  0.05287802  0.42355873  0.36875362    -0.13500
C422        C  0.03097973  0.52741823  0.32590773     0.16300
C423        C  0.03073820  0.55690478  0.32500807     0.25700
C424        C  0.00943515  0.57212040  0.33910278    -0.40600
C425        C  0.98816005  0.55720801  0.35380751     0.32700
C426        C  0.98845812  0.52764895  0.35464085     0.14400
F427        F  0.05145780  0.51313918  0.31179034    -0.13000
F428        F  0.96754469  0.57120772  0.36799983    -0.13500
F429        F  0.05094098  0.57053338  0.30971969    -0.15700
F430        F  0.96807251  0.51360476  0.36931673    -0.14300
F431        F  0.05109912  0.48110790  0.37060680    -0.14300
F432        F  0.97066722  0.42316062  0.30926125    -0.15700
C433        C  0.00231569  0.84996052  0.31404611     0.14300
C434        C  0.01158178  0.83427824  0.33762109     0.01300
C435        C  0.02002584  0.84896237  0.36212382     0.16300
C436        C  0.01944733  0.87857913  0.36291380     0.25700
C437        C  0.01030730  0.89407072  0.33933420    -0.40700
C438        C  0.00162972  0.87957207  0.31495615     0.32700
C439        C  0.01216343  0.80272922  0.33681032     0.01400
F440        F  0.02841089  0.83460918  0.38550514    -0.13000
F441        F  0.99294276  0.89419195  0.29185200    -0.13500
C442        C  0.03689589  0.78780779  0.34380183     0.16300
C443        C  0.03709655  0.75814289  0.34399593     0.25700
C444        C  0.01256229  0.74266005  0.33695089    -0.40600
C445        C  0.98806978  0.75770235  0.32924968     0.32700
C446        C  0.98785262  0.78728915  0.32931411     0.14400
F447        F  0.06107650  0.80198459  0.35009721    -0.13000
F448        F  0.96419635  0.74383470  0.32133629    -0.13500
F449        F  0.06126358  0.74468977  0.35148123    -0.15700
F450        F  0.96353858  0.80083796  0.32255058    -0.14300
F451        F  0.99456023  0.83664075  0.28985495    -0.14300
F452        F  0.02778563  0.89223094  0.38671512    -0.15700
C453        C  0.01517015  0.62605598  0.14860457     0.14300
C454        C  0.00760965  0.65115866  0.16255857     0.01300
C455        C  0.99971231  0.67495035  0.14659758     0.16300
C456        C  0.99967449  0.67370474  0.11710399     0.25700
C457        C  0.00749573  0.64869735  0.10327084    -0.40700
C458        C  0.01513102  0.62485978  0.11911366     0.32700
C459        C  0.00809888  0.65250308  0.19373743     0.01400
F460        F  0.99251097  0.69948836  0.15957895    -0.13000
F461        F  0.02225806  0.60041287  0.10594850    -0.13500
C462        C  0.03312171  0.64667823  0.20848401     0.16300
C463        C  0.03363040  0.64769499  0.23796133     0.25700
C464        C  0.00909091  0.65483096  0.25331395    -0.40600
C465        C  0.98392504  0.66036011  0.23838606     0.32700
C466        C  0.98351386  0.65929129  0.20888402     0.14400
F467        F  0.05723131  0.64027436  0.19427664    -0.13000
F468        F  0.95963247  0.66688204  0.25220508    -0.13500
F469        F  0.05810108  0.64116076  0.25137787    -0.15700
F470        F  0.95892098  0.66442377  0.19507974    -0.14300
F471        F  0.02210606  0.60258637  0.16359398    -0.14300
F472        F  0.99224517  0.69691604  0.10195635    -0.15700
C473        C  0.03658892  0.33438770  0.52958176     0.14300
C474        C  0.01091082  0.33481904  0.51470311     0.01300
C475        C  0.98542441  0.33522193  0.52993399     0.16300
C476        C  0.98551252  0.33519936  0.55946469     0.25700
C477        C  0.01121649  0.33483281  0.57459961    -0.40700
C478        C  0.03679710  0.33440073  0.55919003     0.32700
C479        C  0.01063588  0.33508219  0.48332441     0.01400
F480        F  0.96026823  0.33517705  0.51616980    -0.13000
F481        F  0.06212508  0.33404124  0.57261846    -0.13500
C482        C  0.02416618  0.31358900  0.46790360     0.16300
C483        C  0.02407212  0.31405613  0.43831069     0.25700
C484        C  0.01006505  0.33573326  0.42369820    -0.40600
C485        C  0.99635168  0.35707769  0.43902094     0.32700
C486        C  0.99672120  0.35683135  0.46860004     0.14400
F487        F  0.03691179  0.29180312  0.48151438    -0.13000
F488        F  0.98339084  0.37866514  0.42530504    -0.13500
F489        F  0.03698551  0.29291450  0.42387947    -0.15700
F490        F  0.98396032  0.37815887  0.48289259    -0.14300
F491        F  0.06157022  0.33451501  0.51539870    -0.14300
F492        F  0.96022698  0.33535757  0.57309139    -0.15700
C493        C  0.01583804  0.34938265  0.85095534     0.14300
C494        C  0.00555867  0.32590478  0.83597548     0.01300
C495        C  0.99396288  0.30289329  0.85082213     0.16300
C496        C  0.99278485  0.30328618  0.88038647     0.25700
C497        C  0.00309603  0.32672222  0.89538518    -0.40700
C498        C  0.01471810  0.34975593  0.88051673     0.32700
C499        C  0.00611378  0.32593730  0.80478803     0.01400
F500        F  0.98387210  0.28008033  0.83664006    -0.13000
F501        F  0.02531099  0.37235181  0.89470566    -0.13500
C502        C  0.02889617  0.31408658  0.78997904     0.16300
C503        C  0.02983612  0.31541935  0.76039327     0.25700
C504        C  0.00783226  0.32847411  0.74518943    -0.40600
C505        C  0.98469826  0.33968266  0.76024663     0.32700
C506        C  0.98395509  0.33848052  0.78977507     0.14400
F507        F  0.05022685  0.30129406  0.80420619    -0.13000
F508        F  0.96306941  0.35246843  0.74648141    -0.13500
F509        F  0.05196842  0.30343593  0.74663413    -0.15700
F510        F  0.96163150  0.34972856  0.80384113    -0.14300
F511        F  0.02707494  0.37181741  0.83688167    -0.14300
F512        F  0.98224644  0.28055444  0.89449467    -0.15700
C513        C  0.00180960  0.14222009  0.68195064     0.14300
C514        C  0.00379511  0.15680377  0.65609458     0.01300
C515        C  0.00508592  0.14138290  0.63073701     0.16300
C516        C  0.00504325  0.11179505  0.63130935     0.25700
C517        C  0.00361869  0.09729788  0.65719914    -0.40700
C518        C  0.00164117  0.11265803  0.68248482     0.32700
C519        C  0.00539816  0.18805735  0.65573765     0.01400
F520        F  0.00713969  0.15499797  0.60552076    -0.13000
F521        F  0.99976046  0.09894736  0.70765487    -0.13500
C522        C  0.02799699  0.20197008  0.66906879     0.16300
C523        C  0.02950384  0.23149362  0.66923078     0.25700
C524        C  0.00828682  0.24766404  0.65618308    -0.40600
C525        C  0.98591973  0.23365816  0.64235754     0.32700
C526        C  0.98442597  0.20410149  0.64228000     0.14400
F527        F  0.04865003  0.18687781  0.68197806    -0.13000
F528        F  0.96568603  0.24855643  0.62856932    -0.13500
F529        F  0.05130521  0.24422640  0.68288499    -0.15700
F530        F  0.96213461  0.19113925  0.62966157    -0.14300
F531        F  0.99991593  0.15668378  0.70665196    -0.14300
F532        F  0.00653428  0.09721144  0.60665917    -0.15700
C533        C  0.98817039  0.64554362  0.52872338     0.14300
C534        C  0.01230169  0.65552024  0.51437730     0.01300
C535        C  0.03558464  0.66502597  0.53017110     0.16300
C536        C  0.03482821  0.66444389  0.55972796     0.25700
C537        C  0.01052980  0.65475360  0.57416353    -0.40700
C538        C  0.98717688  0.64538791  0.55825095     0.32700
C539        C  0.01287180  0.65643575  0.48301031     0.01400
F540        F  0.05883057  0.67566531  0.51698594    -0.13000
F541        F  0.96344857  0.63555167  0.57118346    -0.13500
C542        C  0.99096456  0.66981930  0.46813836     0.16300
C543        C  0.99069396  0.66983708  0.43863861     0.25700
C544        C  0.01277341  0.65716443  0.42331445    -0.40600
C545        C  0.03513382  0.64440142  0.43815321     0.32700
C546        C  0.03505325  0.64383416  0.46772965     0.14400
F547        F  0.97004119  0.68347232  0.48221353    -0.13000
F548        F  0.05669246  0.63174193  0.42408288    -0.13500
F549        F  0.96910440  0.68293312  0.42509014    -0.15700
F550        F  0.05636132  0.63041101  0.48140118    -0.14300
F551        F  0.96559083  0.63551902  0.51411236    -0.14300
F552        F  0.05768661  0.67410606  0.57413255    -0.15700
C553        C  0.03597547  0.46316941  0.66600149     0.14300
C554        C  0.01103167  0.47794575  0.65970057     0.01300
C555        C  0.98623595  0.46259047  0.65400391     0.16300
C556        C  0.98620368  0.43308710  0.65491637     0.25700
C557        C  0.01116797  0.41808236  0.66113326    -0.40700
C558        C  0.03614710  0.43356060  0.66646444     0.32700
C559        C  0.01063957  0.50932208  0.65939305     0.01400
F560        F  0.96198203  0.47618581  0.64705584    -0.13000
F561        F  0.06074167  0.42018418  0.67253258    -0.13500
C562        C  0.03007009  0.52471470  0.64280015     0.16300
C563        C  0.02966099  0.55428927  0.64276622     0.25700
C564        C  0.00933031  0.56892601  0.65869839    -0.40600
C565        C  0.98951143  0.55357546  0.67474423     0.32700
C566        C  0.99048791  0.52408077  0.67550377     0.14400
F567        F  0.04902097  0.51112075  0.62610588    -0.13000
F568        F  0.96967890  0.56716678  0.69038971    -0.13500
F569        F  0.04853417  0.56861457  0.62643151    -0.15700
F570        F  0.97207312  0.50993699  0.69249452    -0.14300
F571        F  0.06008426  0.47743258  0.67239276    -0.14300
F572        F  0.96165699  0.41932027  0.64916825    -0.15700
C573        C  0.98045278  0.78358222  0.66083320     0.14300
C574        C  0.00572083  0.79876470  0.66477990     0.01300
C575        C  0.03128027  0.78395149  0.66681725     0.16300
C576        C  0.03169044  0.75449882  0.66488802     0.25700
C577        C  0.00638981  0.73905721  0.66119286    -0.40700
C578        C  0.98072631  0.75405411  0.65906784     0.32700
C579        C  0.00569228  0.83008572  0.66573853     0.01400
F580        F  0.05607554  0.79809620  0.67009484    -0.13000
F581        F  0.95579223  0.74030319  0.65519118    -0.13500
C582        C  0.01741536  0.84460298  0.68891872     0.16300
C583        C  0.01837827  0.87420392  0.68911092     0.25700
C584        C  0.00751823  0.88962077  0.66619954    -0.40600
C585        C  0.99575278  0.87516335  0.64315371     0.32700
C586        C  0.99482788  0.84565117  0.64289810     0.14400
F587        F  0.02762643  0.83008840  0.71146527    -0.13000
F588        F  0.98550140  0.88976421  0.62069739    -0.13500
F589        F  0.02969899  0.88783989  0.71166319    -0.15700
F590        F  0.98397632  0.83223678  0.61998413    -0.14300
F591        F  0.95538581  0.79735938  0.65903256    -0.14300
F592        F  0.05703491  0.74124791  0.66661955    -0.15700
C593        C  0.97913565  0.65512329  0.78929303     0.14300
C594        C  0.00438887  0.65426232  0.80482486     0.01300
C595        C  0.03020523  0.65239092  0.79025798     0.16300
C596        C  0.03087971  0.65204189  0.76069521     0.25700
C597        C  0.00560537  0.65321938  0.74491007    -0.40700
C598        C  0.97967694  0.65458043  0.75970094     0.32700
C599        C  0.00392027  0.65540634  0.83619350     0.01400
F600        F  0.05487505  0.65042638  0.80473616    -0.13000
F601        F  0.95470612  0.65571812  0.74566845    -0.13500
C602        C  0.98886894  0.63502076  0.85187045     0.16300
C603        C  0.98941708  0.63544899  0.88142876     0.25700
C604        C  0.00474993  0.65642996  0.89587576    -0.40600
C605        C  0.01906905  0.67736586  0.88024522     0.32700
C606        C  0.01886528  0.67671084  0.85064900     0.14400
F607        F  0.97428124  0.61418804  0.83854953    -0.13000
F608        F  0.03330828  0.69835992  0.89368922    -0.13500
F609        F  0.97535016  0.61504902  0.89605033    -0.15700
F610        F  0.03306376  0.69703915  0.83604920    -0.14300
F611        F  0.95386663  0.65706134  0.80279994    -0.14300
F612        F  0.05642590  0.65048618  0.74767492    -0.15700
C613        C  0.80157103  0.97043637  0.35144058     0.14300
C614        C  0.81596180  0.99630726  0.34923555     0.01300
C615        C  0.80049010  0.02135873  0.34635955     0.16300
C616        C  0.77092924  0.02060934  0.34548614     0.25700
C617        C  0.75619967  0.99466920  0.34776935    -0.40700
C618        C  0.77201270  0.96954958  0.35084092     0.32700
C619        C  0.84718757  0.99699777  0.34880040     0.01400
F620        F  0.81410085  0.04654411  0.34370113    -0.13000
F621        F  0.75903801  0.94399754  0.35320220    -0.13500
C622        C  0.86183749  0.98775400  0.32470893     0.16300
C623        C  0.89138515  0.98803928  0.32417737     0.25700
C624        C  0.90668757  0.99775313  0.34765774    -0.40600
C625        C  0.89205383  0.00734301  0.37167440     0.32700
C626        C  0.86244013  0.00685488  0.37228360     0.14400
F627        F  0.84743104  0.97885781  0.30156109    -0.13000
F628        F  0.90649166  0.01708098  0.39445783    -0.13500
F629        F  0.90515878  0.97919882  0.30060839    -0.15700
F630        F  0.84861786  0.01569682  0.39582883    -0.14300
F631        F  0.81624111  0.94596572  0.35421224    -0.14300
F632        F  0.75687769  0.04532684  0.34190190    -0.15700
C633        C  0.65865617  0.97017306  0.21549832     0.14300
C634        C  0.66747928  0.99433184  0.20058764     0.01300
C635        C  0.67846560  0.01749601  0.21554639     0.16300
C636        C  0.68055583  0.01653095  0.24503355     0.25700
C637        C  0.67148776  0.99238374  0.26013232    -0.40700
C638        C  0.66069361  0.96913452  0.24497263     0.32700
C639        C  0.66586302  0.99495496  0.16936330     0.01400
F640        F  0.68669692  0.04126883  0.20159816    -0.13000
F641        F  0.65134547  0.94563982  0.25866256    -0.13500
C642        C  0.63962268  0.99273342  0.15559588     0.16300
C643        C  0.63833520  0.99213306  0.12603070     0.25700
C644        C  0.66326885  0.99371409  0.10995049    -0.40600
C645        C  0.68944229  0.99592758  0.12368096     0.32700
C646        C  0.69074425  0.99665552  0.15317828     0.14400
F647        F  0.61531272  0.99118492  0.17083442    -0.13000
F648        F  0.71375723  0.99678386  0.10840669    -0.13500
F649        F  0.61286966  0.98979554  0.11306349    -0.15700
F650        F  0.71634883  0.99813790  0.16600259    -0.14300
F651        F  0.64819503  0.94745491  0.20141356    -0.14300
F652        F  0.69170314  0.03916887  0.25874253    -0.15700
C653        C  0.54005202  0.01053195  0.35336444     0.14300
C654        C  0.52596623  0.98749203  0.34090903     0.01300
C655        C  0.54195105  0.96499400  0.33000928     0.16300
C656        C  0.57150118  0.96562433  0.33136604     0.25700
C657        C  0.58565382  0.98899132  0.34332511    -0.40700
C658        C  0.56955959  0.01130978  0.35452962     0.32700
C659        C  0.49464139  0.98711894  0.33938506     0.01400
F660        F  0.52896794  0.94269827  0.31739896    -0.13000
F661        F  0.58233059  0.03359052  0.36737120    -0.13500
C662        C  0.48016968  0.00977470  0.32682286     0.16300
C663        C  0.45065530  0.01047626  0.32689602     0.25700
C664        C  0.43492989  0.98820462  0.33900437    -0.40600
C665        C  0.44941706  0.96497990  0.35063888     0.32700
C666        C  0.47900783  0.96459902  0.35108628     0.14400
F667        F  0.49467487  0.03115794  0.31415723    -0.13000
F668        F  0.43499958  0.94304897  0.36242947    -0.13500
F669        F  0.43746955  0.03274368  0.31454661    -0.15700
F670        F  0.49238472  0.94262513  0.36374739    -0.14300
F671        F  0.52516001  0.03213384  0.36491427    -0.14300
F672        F  0.58622704  0.94364539  0.32033042    -0.15700
C673        C  0.15863077  0.99131625  0.35721591     0.14300
C674        C  0.17380822  0.99937502  0.33288125     0.01300
C675        C  0.15886037  0.00792486  0.30863332     0.16300
C676        C  0.12923530  0.00793603  0.30869010     0.25700
C677        C  0.11425755  0.99880334  0.33273783    -0.40700
C678        C  0.12913895  0.99070742  0.35700619     0.32700
C679        C  0.20513837  0.99818306  0.33293222     0.01400
F680        F  0.17291671  0.01567769  0.28477465    -0.13000
F681        F  0.11496668  0.98254271  0.38064301    -0.13500
C682        C  0.21886480  0.97293440  0.34030938     0.16300
C683        C  0.24830093  0.97183719  0.34188991     0.25700
C684        C  0.26480398  0.99595847  0.33581105    -0.40600
C685        C  0.25100786  0.02116753  0.32791297     0.32700
C686        C  0.22146723  0.02225069  0.32656885     0.14400
F687        F  0.20368517  0.94915016  0.34592338    -0.13000
F688        F  0.26601311  0.04479492  0.32126390    -0.13500
F689        F  0.26052599  0.94716712  0.34989351    -0.15700
F690        F  0.20879998  0.04703801  0.31970680    -0.14300
F691        F  0.17243584  0.98441800  0.38138141    -0.14300
F692        F  0.11514187  0.01667131  0.28529922    -0.15700
C693        C  0.34496054  0.96970632  0.20833383     0.14300
C694        C  0.34643867  0.99548572  0.19373849     0.01300
C695        C  0.34888815  0.02075894  0.20905121     0.16300
C696        C  0.35014089  0.02021940  0.23862577     0.25700
C697        C  0.34922879  0.99425531  0.25345947    -0.40700
C698        C  0.34648995  0.96899843  0.23779784     0.32700
C699        C  0.34583551  0.99562021  0.16249355     0.01400
F700        F  0.35055012  0.04595511  0.19532652    -0.13000
F701        F  0.34501662  0.94344516  0.25083389    -0.13500
C702        C  0.32372549  0.00889083  0.14784160     0.16300
C703        C  0.32249593  0.00746475  0.11834290     0.25700
C704        C  0.34337263  0.99283694  0.10314360    -0.40600
C705        C  0.36560444  0.97980119  0.11776961     0.32700
C706        C  0.36683343  0.98121018  0.14722834     0.14400
F707        F  0.30294441  0.02252186  0.16214249    -0.13000
F708        F  0.38612847  0.96578622  0.10346302    -0.13500
F709        F  0.30078170  0.02006173  0.10452441    -0.15700
F710        F  0.38860968  0.96860869  0.16094314    -0.14300
F711        F  0.34162539  0.94510087  0.19393402    -0.14300
F712        F  0.35220304  0.04519543  0.25259190    -0.15700
C713        C  0.34379963  0.01392544  0.46988982     0.14300
C714        C  0.34425894  0.98800588  0.48436072     0.01300
C715        C  0.34606040  0.96282421  0.46876403     0.16300
C716        C  0.34746782  0.96355155  0.43917491     0.25700
C717        C  0.34713737  0.98959419  0.42446748    -0.40700
C718        C  0.34529479  0.01478576  0.44035201     0.32700
C719        C  0.34400447  0.98752694  0.51574345     0.01400
F720        F  0.34626523  0.93743359  0.48221114    -0.13000
F721        F  0.34508047  0.04044433  0.42746300    -0.13500
C722        C  0.32163532  0.99991764  0.53093128     0.16300
C723        C  0.32242012  0.00111269  0.56049233     0.25700
C724        C  0.34541013  0.98970630  0.57528217    -0.40600
C725        C  0.36751252  0.97689829  0.56024805     0.32700
C726        C  0.36689898  0.97593956  0.53068225     0.14400
F727        F  0.29896324  0.01069459  0.51711676    -0.13000
F728        F  0.39015546  0.96622759  0.57419830    -0.13500
F729        F  0.30046903  0.01285389  0.57476000    -0.15700
F730        F  0.38912993  0.96457838  0.51657079    -0.14300
F731        F  0.34265331  0.03859137  0.48449392    -0.14300
F732        F  0.34940877  0.93865109  0.42507104    -0.15700
C733        C  0.34577694  0.01818972  0.79036863     0.14300
C734        C  0.34621088  0.99243758  0.80506208     0.01300
C735        C  0.34613177  0.96698829  0.79001031     0.16300
C736        C  0.34577707  0.96714869  0.76051753     0.25700
C737        C  0.34511256  0.99294987  0.74540038    -0.40700
C738        C  0.34501305  0.01852067  0.76079091     0.32700
C739        C  0.34562500  0.99194370  0.83618047     0.01400
F740        F  0.34653167  0.94188306  0.80398234    -0.13000
F741        F  0.34389262  0.04389168  0.74738931    -0.13500
C742        C  0.32106769  0.98298238  0.85033676     0.16300
C743        C  0.32024091  0.98246061  0.87983015     0.25700
C744        C  0.34416488  0.99028022  0.89545352    -0.40600
C745        C  0.36880644  0.99916431  0.88134391     0.32700
C746        C  0.36947510  0.00017034  0.85180078     0.14400
F747        F  0.29775845  0.97525643  0.83550712    -0.13000
F748        F  0.39200668  0.00707261  0.89625324    -0.13500
F749        F  0.29593710  0.97497697  0.89323026    -0.15700
F750        F  0.39336327  0.00894124  0.83840741    -0.14300
F751        F  0.34547490  0.04301086  0.80475468    -0.14300
F752        F  0.34613473  0.94188669  0.74693069    -0.15700
C753        C  0.15424123  0.00610054  0.63459816     0.14300
C754        C  0.16928455  0.99426653  0.65733147     0.01300
C755        C  0.15435934  0.98349238  0.68072503     0.16300
C756        C  0.12487630  0.98408891  0.68119568     0.25700
C757        C  0.10986491  0.99554671  0.65835708    -0.40700
C758        C  0.12469091  0.00679313  0.63515013     0.32700
C759        C  0.20052835  0.99339321  0.65690935     0.01400
F760        F  0.16839096  0.97274247  0.70329920    -0.13000
F761        F  0.11049507  0.01794785  0.61287475    -0.13500
C762        C  0.21618348  0.01849182  0.65437313     0.16300
C763        C  0.24567040  0.01788725  0.65476292     0.25700
C764        C  0.26024493  0.99206666  0.65802718    -0.40600
C765        C  0.24437363  0.96685005  0.66034531     0.32700
C766        C  0.21482263  0.96755560  0.65967255     0.14400
F767        F  0.20286846  0.04378424  0.65213408    -0.13000
F768        F  0.25728711  0.94145503  0.66349379    -0.13500
F769        F  0.25981282  0.04276050  0.65190099    -0.15700
F770        F  0.20009707  0.94291577  0.66148937    -0.14300
F771        F  0.16816728  0.01640920  0.61163993    -0.14300
F772        F  0.11084978  0.97341720  0.70391743    -0.15700
C773        C  0.67809665  0.01711874  0.53705645     0.14300
C774        C  0.66418439  0.99570018  0.52180178     0.01300
C775        C  0.64923195  0.97465710  0.53672631     0.16300
C776        C  0.64895721  0.97450903  0.56629851     0.25700
C777        C  0.66316606  0.99574650  0.58155237    -0.40700
C778        C  0.67726584  0.01736164  0.56660909     0.32700
C779        C  0.66561308  0.99503648  0.49042583     0.01400
F780        F  0.63464890  0.95432472  0.52263743    -0.13000
F781        F  0.69127385  0.03815545  0.58059977    -0.13500
C782        C  0.67455257  0.97048104  0.47629900     0.16300
C783        C  0.67568564  0.96966818  0.44675854     0.25700
C784        C  0.66814913  0.99353937  0.43063754    -0.40600
C785        C  0.65959702  0.01828286  0.44489676     0.32700
C786        C  0.65819799  0.01893159  0.47441259     0.14400
F787        F  0.68280665  0.94736523  0.49115721    -0.13000
F788        F  0.65202880  0.04184372  0.43035994    -0.13500
F789        F  0.68477441  0.94563407  0.43404820    -0.15700
F790        F  0.64897758  0.04282030  0.48732366    -0.14300
F791        F  0.69339804  0.03729065  0.52338478    -0.14300
F792        F  0.63436392  0.95382900  0.57998872    -0.15700
C793        C  0.53609098  0.02117583  0.67069583     0.14300
C794        C  0.52081641  0.99564483  0.67016652     0.01300
C795        C  0.53561924  0.96998130  0.66992515     0.16300
C796        C  0.56512883  0.96976351  0.66963780     0.25700
C797        C  0.58066003  0.99532708  0.66953991    -0.40700
C798        C  0.56567298  0.02108029  0.67015024     0.32700
C799        C  0.48951691  0.99564075  0.66854176     0.01400
F800        F  0.52146728  0.94496378  0.66912087    -0.13000
F801        F  0.57948444  0.04629052  0.66995898    -0.13500
C802        C  0.47578211  0.01021311  0.64658077     0.16300
C803        C  0.44632292  0.00944323  0.64437112     0.25700
C804        C  0.43020809  0.99337168  0.66353446    -0.40600
C805        C  0.44385660  0.97863345  0.68535505     0.32700
C806        C  0.47324377  0.98012872  0.68812832     0.14400
F807        F  0.49096859  0.02452766  0.62677624    -0.13000
F808        F  0.42861814  0.96349390  0.70450165    -0.13500
F809        F  0.43358025  0.02366274  0.62297170    -0.15700
F810        F  0.48579107  0.96675971  0.71018253    -0.14300
F811        F  0.52231522  0.04628641  0.67192287    -0.14300
F812        F  0.57833127  0.94433133  0.66899913    -0.15700
C813        C  0.85761613  0.97806119  0.64043523     0.14300
C814        C  0.84270977  0.98861447  0.66391059     0.01300
C815        C  0.85790535  0.99974535  0.68690405     0.16300
C816        C  0.88743467  0.00085462  0.68620568     0.25700
C817        C  0.90224531  0.99056431  0.66267559    -0.40700
C818        C  0.88720717  0.97904956  0.63983483     0.32700
C819        C  0.81135602  0.98922783  0.66400426     0.01400
F820        F  0.84408316  0.00938349  0.71012780    -0.13000
F821        F  0.90122863  0.96931715  0.61676466    -0.13500
C822        C  0.79550819  0.96416043  0.66197364     0.16300
C823        C  0.76590678  0.96497235  0.66226641     0.25700
C824        C  0.75147080  0.99100810  0.66443941    -0.40600
C825        C  0.76760917  0.01607778  0.66653266     0.32700
C826        C  0.79714699  0.01513220  0.66628075     0.14400
F827        F  0.80872097  0.93877724  0.66026650    -0.13000
F828        F  0.75496195  0.04167496  0.66900595    -0.13500
F829        F  0.75151983  0.94014229  0.66058179    -0.15700
F830        F  0.81197993  0.03970617  0.66790073    -0.14300
F831        F  0.84348590  0.96755373  0.61779371    -0.14300
F832        F  0.90167338  0.01200825  0.70846279    -0.15700
C833        C  0.64819739  0.00258493  0.85830965     0.14300
C834        C  0.67022877  0.98974534  0.84308782     0.01300
C835        C  0.69241255  0.97670056  0.85785937     0.16300
C836        C  0.69267939  0.97674018  0.88743471     0.25700
C837        C  0.67085596  0.98997412  0.90256973    -0.40700
C838        C  0.64854455  0.00272294  0.88783768     0.32700
C839        C  0.67018741  0.99030633  0.81181549     0.01400
F840        F  0.71408329  0.96447368  0.84359711    -0.13000
F841        F  0.62700703  0.01510469  0.90217258    -0.13500
C842        C  0.67092273  0.01620806  0.79734102     0.16300
C843        C  0.67052470  0.01693364  0.76779260     0.25700
C844        C  0.66915286  0.99162501  0.75201582    -0.40600
C845        C  0.66874669  0.96563008  0.76677315     0.32700
C846        C  0.66933033  0.96504372  0.79633598     0.14400
F847        F  0.67244324  0.04088840  0.81190754    -0.13000
F848        F  0.66763395  0.94063213  0.75274738    -0.13500
F849        F  0.67155924  0.04252997  0.75479209    -0.15700
F850        F  0.66852097  0.93973274  0.80991143    -0.14300
F851        F  0.62616195  0.01465380  0.84453709    -0.14300
F852        F  0.71430802  0.96411103  0.90134868    -0.15700
C853        C  0.34531002  0.78168347  0.02688676     0.14300
C854        C  0.34625898  0.79691325  0.00146497     0.01300
C855        C  0.34769990  0.78235189  0.97574986     0.16300
C856        C  0.34812478  0.75281896  0.97532548     0.25700
C857        C  0.34703586  0.73719974  0.00078091    -0.40700
C858        C  0.34573731  0.75210888  0.02663457     0.32700
C859        C  0.34529859  0.82806185  0.00163204     0.01400
F860        F  0.34884372  0.79685100  0.95097307    -0.13000
F861        F  0.34460022  0.73823026  0.05176330    -0.13500
C862        C  0.36877129  0.84382344  0.01075584     0.16300
C863        C  0.36791896  0.87337992  0.01040237     0.25700
C864        C  0.34351695  0.88739529  0.00109580    -0.40600
C865        C  0.32003727  0.87164146  0.99211505     0.32700
C866        C  0.32098641  0.84212477  0.99219146     0.14400
F867        F  0.39263451  0.83054357  0.01941993    -0.13000
F868        F  0.29619142  0.88494629  0.98346151    -0.13500
F869        F  0.39091305  0.88838092  0.01883829    -0.15700
F870        F  0.29815225  0.82719922  0.98322548    -0.14300
F871        F  0.34337579  0.79550674  0.05195632    -0.14300
F872        F  0.34958354  0.73967177  0.94987923    -0.15700
C873        C  0.21704769  0.66540393  0.97660096     0.14300
C874        C  0.20170285  0.65448568  0.99964618     0.01300
C875        C  0.21641220  0.64409190  0.02322868     0.16300
C876        C  0.24594343  0.64370609  0.02342816     0.25700
C877        C  0.26141755  0.65405648  0.00013089    -0.40700
C878        C  0.24662361  0.66548197  0.97694333     0.32700
C879        C  0.17041041  0.65306483  0.99884020     0.01400
F880        F  0.20210600  0.63413670  0.04610150    -0.13000
F881        F  0.26072680  0.67693963  0.95463917    -0.13500
C882        C  0.15649997  0.62690226  0.00207077     0.16300
C883        C  0.12695032  0.62546776  0.00203438     0.25700
C884        C  0.11093543  0.65010936  0.99818605    -0.40600
C885        C  0.12475318  0.67618401  0.99472735     0.32700
C886        C  0.15427567  0.67771118  0.99514137     0.14400
F887        F  0.17162138  0.60271212  0.00492025    -0.13000
F888        F  0.10948806  0.70021876  0.99152895    -0.13500
F889        F  0.11396878  0.60009660  0.00582154    -0.15700
F890        F  0.16708168  0.70332329  0.99260467    -0.14300
F891        F  0.20339042  0.67519973  0.95336365    -0.14300
F892        F  0.25931558  0.63242049  0.04614324    -0.15700
C893        C  0.47660024  0.65807649  0.02359580     0.14300
C894        C  0.49150952  0.65557931  0.99804940     0.01300
C895        C  0.47644502  0.65308930  0.97264251     0.16300
C896        C  0.44690562  0.65217878  0.97284241     0.25700
C897        C  0.43178924  0.65376080  0.99857128    -0.40700
C898        C  0.44709161  0.65718372  0.02392328     0.32700
C899        C  0.52277341  0.65500665  0.99811886     0.01400
F900        F  0.49037072  0.65089640  0.94761495    -0.17800
F901        F  0.43364507  0.65993750  0.04914913    -0.13500
C902        C  0.53711164  0.63433600  0.01389603     0.16300
C903        C  0.56662396  0.63418200  0.01478612     0.25700
C904        C  0.58224835  0.65427759  0.99939788    -0.40600
C905        C  0.56799461  0.67467125  0.98323307     0.32700
C906        C  0.53843205  0.67517741  0.98277465     0.14400
F907        F  0.52248269  0.61399889  0.02806037    -0.13000
F908        F  0.58270813  0.69466397  0.96868308    -0.13500
F909        F  0.57999273  0.61393063  0.03006439    -0.15700
F910        F  0.52507464  0.69574951  0.96792397    -0.14300
F911        F  0.49070109  0.66176186  0.04830036    -0.14300
F912        F  0.43326210  0.64947166  0.94776407    -0.15700
C913        C  0.67956547  0.78261767  0.98017952     0.14300
C914        C  0.66937253  0.79690167  0.00408294     0.01300
C915        C  0.65946386  0.78134543  0.02732672     0.16300
C916        C  0.65967082  0.75183313  0.02679277     0.25700
C917        C  0.66946495  0.73725612  0.00271303    -0.40700
C918        C  0.67953237  0.75302208  0.97941371     0.32700
C919        C  0.66870545  0.82807626  0.00486608     0.01400
F920        F  0.64963746  0.79484695  0.05065691    -0.13000
F921        F  0.68969764  0.73987631  0.95602637    -0.13500
C922        C  0.64267782  0.84227917  0.00509037     0.16300
C923        C  0.64190979  0.87177479  0.00661214     0.25700
C924        C  0.66716713  0.88739204  0.00765601    -0.40600
C925        C  0.69319041  0.87322306  0.00752265     0.32700
C926        C  0.69396396  0.84369564  0.00625745     0.14400
F927        F  0.61806738  0.82752193  0.00348757    -0.13000
F928        F  0.71777140  0.88807486  0.00859381    -0.13500
F929        F  0.61659639  0.88519721  0.00660537    -0.15700
F930        F  0.71928138  0.83029000  0.00684950    -0.14300
F931        F  0.68908051  0.79737233  0.95740059    -0.14300
F932        F  0.64970933  0.73761643  0.04971608    -0.15700
C933        C  0.85804250  0.62714579  0.99163520     0.14300
C934        C  0.84350065  0.65050292  0.00278301     0.01300
C935        C  0.85894074  0.67343774  0.01372982     0.16300
C936        C  0.88849516  0.67317876  0.01314860     0.25700
C937        C  0.90295586  0.64997266  0.00170777    -0.40700
C938        C  0.88759765  0.62681126  0.99128082     0.32700
C939        C  0.81223574  0.65096776  0.00273759     0.01400
F940        F  0.84536261  0.69627219  0.02448429    -0.13000
F941        F  0.90129475  0.60375406  0.98117439    -0.13500
C942        C  0.79706984  0.65180330  0.02824347     0.16300
C943        C  0.76748261  0.65182771  0.02815160     0.25700
C944        C  0.75242001  0.65084608  0.00241907    -0.40600
C945        C  0.76791559  0.65030383  0.97684603     0.32700
C946        C  0.79745731  0.65040595  0.97708365     0.14400
F947        F  0.81097243  0.65213285  0.05332350    -0.13000
F948        F  0.75464528  0.64976560  0.95143136    -0.13500
F949        F  0.75372989  0.65289818  0.05334114    -0.15700
F950        F  0.81172642  0.65036535  0.95214030    -0.14300
F951        F  0.84355664  0.60451366  0.98148949    -0.14300
F952        F  0.90309520  0.69555722  0.02367226    -0.15700
C953        C  0.36498022  0.46011004  0.98196090     0.14300
C954        C  0.34581749  0.47494784  0.99910693     0.01300
C955        C  0.32657172  0.45974300  0.01602888     0.16300
C956        C  0.32663973  0.43015306  0.01592381     0.25700
C957        C  0.34556938  0.41536445  0.99846943    -0.40700
C958        C  0.36465689  0.43055078  0.98140868     0.32700
C959        C  0.34583882  0.50627191  0.99911058     0.01400
F960        F  0.30728805  0.47357061  0.03213425    -0.13000
F961        F  0.38353947  0.41673295  0.96481676    -0.13500
C962        C  0.34015872  0.52126558  0.97414278     0.16300
C963        C  0.34036942  0.55087407  0.97395918     0.25700
C964        C  0.34633917  0.56617443  0.99886412    -0.40600
C965        C  0.35226392  0.55088737  0.02384434     0.32700
C966        C  0.35189384  0.52129059  0.02393181     0.14400
F967        F  0.33391880  0.50713902  0.94996209    -0.13000
F968        F  0.35891660  0.56445872  0.04822034    -0.13500
F969        F  0.33432506  0.56443198  0.94940541    -0.15700
F970        F  0.35805037  0.50723307  0.04819483    -0.14300
F971        F  0.38435037  0.47430402  0.96612293    -0.14300
F972        F  0.30761244  0.41592934  0.03217459    -0.15700
C973        C  0.21422860  0.33455077  0.01607966     0.14300
C974        C  0.20088616  0.32676721  0.99084573     0.01300
C975        C  0.21710195  0.32143779  0.96665469     0.16300
C976        C  0.24656346  0.32307714  0.96786048     0.25700
C977        C  0.26025383  0.33019985  0.99338945    -0.40700
C978        C  0.24365978  0.33638474  0.01738816     0.32700
C979        C  0.16993095  0.32434682  0.98996872     0.01400
F980        F  0.20438274  0.31415646  0.94199980    -0.13000
F981        F  0.25578509  0.34450679  0.04207847    -0.13500
C982        C  0.15379532  0.34625801  0.97832997     0.16300
C983        C  0.12432958  0.34499635  0.97948204     0.25700
C984        C  0.11077072  0.32183682  0.99236586    -0.40600
C985        C  0.12691950  0.29961706  0.00344808     0.32700
C986        C  0.15640570  0.30084528  0.00220410     0.14400
F987        F  0.16664591  0.36921200  0.96668698    -0.13000
F988        F  0.11406925  0.27699193  0.01570726    -0.13500
F989        F  0.10896118  0.36665734  0.96870717    -0.15700
F990        F  0.17182737  0.27932274  0.01318028    -0.14300
F991        F  0.19861955  0.34054626  0.03942531    -0.14300
F992        F  0.26159692  0.31702185  0.94416299    -0.15700
C993        C  0.36656703  0.13850577  0.98590118     0.14300
C994        C  0.34416924  0.15414510  0.99746862     0.01300
C995        C  0.32080110  0.13989089  0.00922651     0.16300
C996        C  0.31981859  0.11037542  0.00931480     0.25700
C997        C  0.34218693  0.09482313  0.99768219    -0.40700
C998        C  0.36559763  0.10900092  0.98607153     0.32700
C999        C  0.34512212  0.18533546  0.99732719     0.01400
F1000       F  0.29878250  0.15460859  0.02021040    -0.13000
F1001       F  0.38753660  0.09415767  0.97510532    -0.13500
C1002       C  0.34594585  0.20024648  0.97168780     0.16300
C1003       C  0.34581401  0.22981217  0.97153810     0.25700
C1004       C  0.34523199  0.24507902  0.99718521    -0.40600
C1005       C  0.34498347  0.22981928  0.02288675     0.32700
C1006       C  0.34485778  0.20028955  0.02287777     0.14400
F1007       F  0.34642208  0.18610740  0.94672219    -0.13000
F1008       F  0.34497200  0.24331097  0.04819481    -0.13500
F1009       F  0.34614924  0.24332347  0.94619661    -0.15700
F1010       F  0.34493600  0.18620481  0.04792134    -0.14300
F1011       F  0.38956020  0.15183626  0.97491458    -0.14300
F1012       F  0.29700888  0.09690489  0.02053961    -0.15700
C1013       C  0.67411706  0.46199352  0.02630960     0.14300
C1014       C  0.66042729  0.47617931  0.00414455     0.01300
C1015       C  0.64693822  0.46043443  0.98297202     0.16300
C1016       C  0.64785179  0.43085812  0.98341277     0.25700
C1017       C  0.66209730  0.41650514  0.00526114    -0.40700
C1018       C  0.67480600  0.43238964  0.02698148     0.32700
C1019       C  0.66078578  0.50742105  0.00272241     0.01400
F1020       F  0.63272163  0.47379664  0.96195970    -0.13000
F1021       F  0.68881784  0.41931056  0.04830409    -0.13500
C1022       C  0.67703368  0.52134917  0.98202630     0.16300
C1023       C  0.67812012  0.55093034  0.98114537     0.25700
C1024       C  0.66282090  0.56701376  0.00088405    -0.40600
C1025       C  0.64602704  0.55298065  0.02117754     0.32700
C1026       C  0.64506013  0.52341588  0.02208793     0.14400
F1027       F  0.69228574  0.50622977  0.96302199    -0.13000
F1028       F  0.63004709  0.56791100  0.03974096    -0.13500
F1029       F  0.69489733  0.56382158  0.96165410    -0.15700
F1030       F  0.62843679  0.51034571  0.04159067    -0.14300
F1031       F  0.68750254  0.47686592  0.04687260    -0.14300
F1032       F  0.63438271  0.41626425  0.96270676    -0.15700
C1033       C  0.53688562  0.33957561  0.97690642     0.14300
C1034       C  0.52123192  0.33187151  0.00105304     0.01300
C1035       C  0.53572075  0.32311000  0.02540982     0.16300
C1036       C  0.56524985  0.32218902  0.02575004     0.25700
C1037       C  0.58108093  0.32994250  0.00164578    -0.40700
C1038       C  0.56646731  0.33851325  0.97712185     0.32700
C1039       C  0.48983373  0.33203330  0.00065048     0.01400
F1040       F  0.52121753  0.31467264  0.04876294    -0.13000
F1041       F  0.58070945  0.34643655  0.95343421    -0.13500
C1042       C  0.47508785  0.31696516  0.97972219     0.16300
C1043       C  0.44558004  0.31651498  0.97956238     0.25700
C1044       C  0.43015206  0.33064676  0.00066798    -0.40600
C1045       C  0.44481902  0.34554698  0.02178426     0.32700
C1046       C  0.47440175  0.34654524  0.02155258     0.14400
F1047       F  0.48926780  0.30207623  0.95972982    -0.13000
F1048       F  0.43053537  0.35992853  0.04208930    -0.13500
F1049       F  0.43208459  0.30161491  0.95908162    -0.15700
F1050       F  0.48797155  0.36220588  0.04140097    -0.14300
F1051       F  0.52352234  0.34859795  0.95317974    -0.14300
F1052       F  0.57825468  0.31306401  0.04961421    -0.15700
C1053       C  0.85785374  0.31325380  0.99043312     0.14300
C1054       C  0.84360548  0.33377922  0.00651808     0.01300
C1055       C  0.85956478  0.35402429  0.02138583     0.16300
C1056       C  0.88919373  0.35374411  0.02011701     0.25700
C1057       C  0.90340366  0.33302336  0.00421167    -0.40700
C1058       C  0.88740936  0.31284391  0.98934765     0.32700
C1059       C  0.81214656  0.33438102  0.00696832     0.01400
F1060       F  0.84643723  0.37451911  0.03653034    -0.13000
F1061       F  0.90049599  0.29256262  0.97387806    -0.13500
C1062       C  0.79699151  0.33194499  0.03247660     0.16300
C1063       C  0.76729417  0.33169601  0.03249151     0.25700
C1064       C  0.75209410  0.33375207  0.00686294    -0.40600
C1065       C  0.76756146  0.33614034  0.98140367     0.32700
C1066       C  0.79709397  0.33667962  0.98153793     0.14400
F1067       F  0.81097181  0.32905649  0.05735153    -0.13000
F1068       F  0.75424023  0.33790108  0.95608038    -0.13500
F1069       F  0.75358467  0.32900549  0.05760599    -0.15700
F1070       F  0.81107733  0.33972775  0.95661949    -0.14300
F1071       F  0.84308043  0.29331795  0.97599181    -0.14300
F1072       F  0.90405932  0.37388709  0.03416927    -0.15700
C1073       C  0.68712840  0.20186203  0.98329456     0.14300
C1074       C  0.67048802  0.18630763  0.00250922     0.01300
C1075       C  0.65373913  0.20081385  0.02221318     0.16300
C1076       C  0.65337402  0.23037718  0.02264461     0.25700
C1077       C  0.66956836  0.24607306  0.00315764    -0.40700
C1078       C  0.68654521  0.23153543  0.98348313     0.32700
C1079       C  0.67035572  0.15495234  0.00221702     0.01400
F1080       F  0.63790722  0.18623754  0.04129890    -0.13000
F1081       F  0.70307595  0.24603680  0.96491990    -0.13500
C1082       C  0.69461002  0.13974751  0.01000281     0.16300
C1083       C  0.69397899  0.11013370  0.01095934     0.25700
C1084       C  0.66906906  0.09537771  0.00426389    -0.40600
C1085       C  0.64487074  0.11051520  0.99638515     0.32700
C1086       C  0.64548940  0.14009275  0.99537917     0.14400
F1087       F  0.71863902  0.15364018  0.01736820    -0.13000
F1088       F  0.62065339  0.09655798  0.98978037    -0.13500
F1089       F  0.71762723  0.09579106  0.01841164    -0.15700
F1090       F  0.62184167  0.15429119  0.98764410    -0.14300
F1091       F  0.70367172  0.18829784  0.96417904    -0.14300
F1092       F  0.63658681  0.24367177  0.04172031    -0.15700
loop_ 
_geom_bond_atom_site_label_1 
_geom_bond_atom_site_label_2 
_geom_bond_distance 
_geom_bond_site_symmetry_2 
_ccdc_geom_bond_type 
O1           Ni9   1.918       .  S
O1           C11   1.281   1_556  A
O2           Ni9   1.922       .  S
O2           C12   1.281   1_556  A
O3           Ni9   1.921       .  S
O3           C13   1.282   1_556  A
O4           Ni9   1.918       .  S
O4           C14   1.283   1_556  A
O5          Ni10   1.925       .  S
O5           C14   1.282       .  A
O6          Ni10   1.920       .  S
O6           C13   1.282       .  A
O7          Ni10   1.921       .  S
O7           C12   1.282       .  A
O8          Ni10   1.922       .  S
O8           C11   1.282       .  A
Ni9         Ni10   2.384   1_556  S
C11        C1017   1.483       .  S
C12        C1077   1.482       .  S
C13        C1037   1.489       .  S
C14        C1064   1.495       .  S
O15         Ni23   1.907       .  S
O15          C25   1.279       .  A
O16         Ni23   1.910       .  S
O16          C26   1.280       .  A
O17         Ni23   1.917       .  S
O17          C27   1.281       .  A
O18         Ni23   1.917       .  S
O18          C28   1.282       .  A
O19         Ni24   1.915       .  S
O19          C28   1.281   1_554  A
O20         Ni24   1.912       .  S
O20          C27   1.280   1_554  A
O21         Ni24   1.916       .  S
O21          C26   1.282   1_554  A
O22         Ni24   1.922       .  S
O22          C25   1.282   1_554  A
Ni23        Ni24   2.386   1_556  S
C25        C1044   1.477   1_556  S
C26         C977   1.482       .  S
C27         C957   1.472       .  S
C28        C1004   1.488       .  S
O29         Ni37   1.916       .  S
O29          C39   1.280   1_556  A
O30         Ni37   1.913       .  S
O30          C40   1.281   1_556  A
O31         Ni37   1.925       .  S
O31          C41   1.283   1_556  A
O32         Ni37   1.919       .  S
O32          C42   1.282   1_556  A
O33         Ni38   1.912       .  S
O33          C42   1.281       .  A
O34         Ni38   1.911       .  S
O34          C41   1.280       .  A
O35         Ni38   1.922       .  S
O35          C40   1.283       .  A
O36         Ni38   1.917       .  S
O36          C39   1.281       .  A
Ni37        Ni38   2.386   1_556  S
C39         C904   1.470   1_554  S
C40         C944   1.490       .  S
C41        C1024   1.478       .  S
C42         C917   1.483       .  S
O43         Ni51   1.925       .  S
O43          C53   1.283       .  A
O44         Ni51   1.917       .  S
O44          C54   1.282   1_556  A
O45         Ni51   1.913       .  S
O45          C55   1.280       .  A
O46         Ni51   1.914       .  S
O46          C56   1.281       .  A
O47         Ni52   1.917       .  S
O47          C56   1.282   1_554  A
O48         Ni52   1.915       .  S
O48          C55   1.281   1_554  A
O49         Ni52   1.914       .  S
O49          C54   1.281       .  A
O50         Ni52   1.918       .  S
O50          C53   1.281   1_554  A
Ni51        Ni52   2.382   1_556  S
C53         C964   1.492       .  S
C54         C857   1.488       .  S
C55         C897   1.487       .  S
C56         C877   1.482   1_556  S
O57         Ni65   1.911       .  S
O57          C67   1.280       .  A
O58         Ni65   1.916       .  S
O58          C68   1.281       .  A
O59         Ni65   1.918       .  S
O59          C69   1.282       .  A
O60         Ni65   1.918       .  S
O60          C70   1.281       .  A
O61         Ni66   1.916       .  S
O61          C70   1.281   1_545  A
O62         Ni66   1.916       .  S
O62          C69   1.281   1_545  A
O63         Ni66   1.921       .  S
O63          C68   1.283   1_545  A
O64         Ni66   1.922       .  S
O64          C67   1.282   1_545  A
Ni65        Ni66   2.382   1_565  S
C67         C797   1.489       .  S
C68         C824   1.492       .  S
C69         C844   1.490       .  S
C70         C777   1.480       .  S
O71         Ni79   1.920       .  S
O71          C81   1.281   1_545  A
O72         Ni79   1.923       .  S
O72          C82   1.283   1_545  A
O73         Ni79   1.913       .  S
O73          C83   1.280   1_545  A
O74         Ni79   1.907       .  S
O74          C84   1.280   1_545  A
O75         Ni80   1.923       .  S
O75          C84   1.283       .  A
O76         Ni80   1.919       .  S
O76          C83   1.282       .  A
O77         Ni80   1.908       .  S
O77          C82   1.280       .  A
O78         Ni80   1.914       .  S
O78          C81   1.280       .  A
Ni79        Ni80   2.385   1_545  S
C81         C724   1.470       .  S
C82         C737   1.488       .  S
C83         C804   1.471       .  S
C84         C764   1.487       .  S
O85         Ni93   1.916       .  S
O85          C95   1.281   1_545  A
O86         Ni93   1.916       .  S
O86          C96   1.281   1_545  A
O87         Ni93   1.923       .  S
O87          C97   1.283   1_545  A
O88         Ni93   1.918       .  S
O88          C98   1.281   1_545  A
O89         Ni94   1.917       .  S
O89          C98   1.282       .  A
O90         Ni94   1.919       .  S
O90          C97   1.282       .  A
O91         Ni94   1.915       .  S
O91          C96   1.282       .  A
O92         Ni94   1.918       .  S
O92          C95   1.281       .  A
Ni93        Ni94   2.383   1_545  S
C95         C664   1.481       .  S
C96         C684   1.485       .  S
C97         C717   1.494       .  S
C98         C697   1.490       .  S
O99        Ni107   1.909       .  S
O99         C109   1.279   1_545  A
O100       Ni107   1.911       .  S
O100        C110   1.280   1_545  A
O101       Ni107   1.921       .  S
O101        C111   1.283   1_545  A
O102       Ni107   1.920       .  S
O102        C112   1.282   1_545  A
O103       Ni108   1.915       .  S
O103        C112   1.281       .  A
O104       Ni108   1.915       .  S
O104        C111   1.280       .  A
O105       Ni108   1.923       .  S
O105        C110   1.283       .  A
O106       Ni108   1.924       .  S
O106        C109   1.283       .  A
Ni107      Ni108   2.384   1_545  S
C109        C784   1.486       .  S
C110        C637   1.483       .  S
C111        C657   1.482       .  S
C112        C617   1.491       .  S
O113       Ni121   1.913       .  S
O113        C123   1.280   1_655  A
O114       Ni121   1.915       .  S
O114        C124   1.281   1_655  A
O115       Ni121   1.919       .  S
O115        C125   1.282   1_655  A
O116       Ni121   1.919       .  S
O116        C126   1.282   1_655  A
O117       Ni122   1.918       .  S
O117        C126   1.282       .  A
O118       Ni122   1.914       .  S
O118        C125   1.280       .  A
O119       Ni122   1.913       .  S
O119        C124   1.281       .  A
O120       Ni122   1.914       .  S
O120        C123   1.280       .  A
Ni121      Ni122   2.384   1_655  S
C123        C564   1.473       .  S
C124        C577   1.487       .  S
C125        C537   1.484       .  S
C126        C597   1.491       .  S
O127       Ni135   1.923       .  S
O127        C137   1.283       .  A
O128       Ni135   1.923       .  S
O128        C138   1.283       .  A
O129       Ni135   1.918       .  S
O129        C139   1.282       .  A
O130       Ni135   1.922       .  S
O130        C140   1.282       .  A
O131       Ni136   1.912       .  S
O131        C140   1.281   1_655  A
O132       Ni136   1.913       .  S
O132        C139   1.281   1_655  A
O133       Ni136   1.915       .  S
O133        C138   1.281   1_655  A
O134       Ni136   1.910       .  S
O134        C137   1.280   1_655  A
Ni135      Ni136   2.384   1_455  S
C137        C477   1.490       .  S
C138        C504   1.484       .  S
C139        C524   1.479       .  S
C140        C557   1.488       .  S
O141       Ni149   1.914       .  S
O141        C151   1.281       .  A
O142       Ni149   1.923       .  S
O142        C152   1.282       .  A
O143       Ni149   1.915       .  S
O143        C153   1.281       .  A
O144       Ni149   1.912       .  S
O144        C154   1.281       .  A
O145       Ni150   1.912       .  S
O145        C154   1.280   1_655  A
O146       Ni150   1.911       .  S
O146        C153   1.281   1_655  A
O147       Ni150   1.918       .  S
O147        C152   1.282   1_655  A
O148       Ni150   1.916       .  S
O148        C151   1.281   1_655  A
Ni149      Ni150   2.385   1_455  S
C151        C424   1.476       .  S
C152        C444   1.491       .  S
C153        C544   1.478       .  S
C154        C464   1.482       .  S
O155       Ni163   1.906       .  S
O155        C165   1.279   1_655  A
O156       Ni163   1.914       .  S
O156        C166   1.281   1_655  A
O157       Ni163   1.923       .  S
O157        C167   1.282   1_655  A
O158       Ni163   1.921       .  S
O158        C168   1.282   1_655  A
O159       Ni164   1.913       .  S
O159        C168   1.281       .  A
O160       Ni164   1.915       .  S
O160        C167   1.280       .  A
O161       Ni164   1.911       .  S
O161        C166   1.281       .  A
O162       Ni164   1.915       .  S
O162        C165   1.281       .  A
Ni163      Ni164   2.387   1_655  S
C165        C417   1.471       .  S
C166        C377   1.483       .  S
C167        C484   1.473       .  S
C168        C397   1.489       .  S
N169        C174   1.354       .  A
N169        C173   1.353       .  A
N169        H201   1.042       .  S
N170        C177   1.353       .  A
N170        C178   1.352       .  A
N171        C176   1.352       .  A
N171        C175   1.352       .  A
N171        H202   1.042       .  S
N172        C179   1.349       .  A
N172        C180   1.349       .  A
C173        C181   1.387       .  A
C173        C189   1.418   1_556  A
C174        C190   1.416   1_655  A
C174        C182   1.386       .  A
C175        C183   1.388       .  A
C175        C192   1.415       .  A
C176        C191   1.414   1_554  A
C176        C184   1.388       .  A
C177        C189   1.417       .  A
C177        C185   1.387       .  A
C178        C192   1.414   1_655  A
C178        C186   1.386       .  A
C179        C187   1.387       .  A
C179        C190   1.410       .  A
C180        C188   1.386       .  A
C180        C191   1.409       .  A
C181        C182   1.378       .  A
C181        H193   1.082       .  S
C182        H194   1.082       .  S
C183        C184   1.375       .  A
C183        H195   1.082       .  S
C184        H196   1.082       .  S
C185        C186   1.373       .  A
C185        H197   1.082       .  S
C186        H198   1.082       .  S
C187        C188   1.371       .  A
C187        H199   1.082       .  S
C188        H200   1.082       .  S
C189       C1057   1.496       .  S
C190        C497   1.484       .  S
C191        C984   1.480       .  S
C192        C404   1.487       .  S
N203        C208   1.353       .  A
N203        C207   1.352       .  A
N203        H235   1.038       .  S
N204        C211   1.353       .  A
N204        C212   1.353       .  A
N205        C210   1.354       .  A
N205        C209   1.353       .  A
N205        H236   1.038       .  S
N206        C213   1.349       .  A
N206        C214   1.350       .  A
C207        C215   1.387       .  A
C207        C223   1.414   1_554  A
C208        C224   1.413       .  A
C208        C216   1.387       .  A
C209        C217   1.388       .  A
C209        C226   1.417   1_655  A
C210        C225   1.415   1_556  A
C210        C218   1.386       .  A
C211        C223   1.414       .  A
C211        C219   1.385       .  A
C212        C226   1.418       .  A
C212        C220   1.387       .  A
C213        C221   1.386       .  A
C213        C224   1.409   1_655  A
C214        C222   1.386       .  A
C214        C225   1.410       .  A
C215        C216   1.375       .  A
C215        H227   1.082       .  S
C216        H228   1.082       .  S
C217        C218   1.376       .  A
C217        H229   1.082       .  S
C218        H230   1.082       .  S
C219        C220   1.373       .  A
C219        H231   1.082       .  S
C220        H232   1.082       .  S
C221        C222   1.372       .  A
C221        H233   1.082       .  S
C222        H234   1.082       .  S
C223        C884   1.485       .  S
C224        C457   1.478       .  S
C225        C937   1.483       .  S
C226        C604   1.492       .  S
N237        C242   1.354       .  A
N237        C241   1.354       .  A
N237        H269   1.037       .  S
N238        C245   1.352       .  A
N238        C246   1.351       .  A
N239        C244   1.353       .  A
N239        C243   1.352       .  A
N239        H270   1.038       .  S
N240        C247   1.353       .  A
N240        C248   1.353       .  A
C241        C249   1.387       .  A
C241        C257   1.417       .  A
C242        C258   1.418   1_655  A
C242        C250   1.387       .  A
C243        C251   1.386       .  A
C243        C260   1.412       .  A
C244        C259   1.415   1_545  A
C244        C252   1.388       .  A
C245        C257   1.413   1_545  A
C245        C253   1.387       .  A
C246        C260   1.412   1_655  A
C246        C254   1.386       .  A
C247        C255   1.387       .  A
C247        C258   1.417       .  A
C248        C256   1.386       .  A
C248        C259   1.416       .  A
C249        C250   1.377       .  A
C249        H261   1.082       .  S
C250        H262   1.082       .  S
C251        C252   1.374       .  A
C251        H263   1.082       .  S
C252        H264   1.082       .  S
C253        C254   1.372       .  A
C253        H265   1.082       .  S
C254        H266   1.082       .  S
C255        C256   1.373       .  A
C255        H267   1.082       .  S
C256        H268   1.082       .  S
C257        C624   1.487       .  S
C258        C437   1.490       .  S
C259        C677   1.485       .  S
C260        C384   1.481       .  S
N271        C276   1.354       .  A
N271        C275   1.353       .  A
N271        H303   1.037       .  S
N272        C279   1.350       .  A
N272        C280   1.352       .  A
N273        C278   1.353       .  A
N273        C277   1.353       .  A
N273        H304   1.037       .  S
N274        C281   1.351       .  A
N274        C282   1.351       .  A
C275        C283   1.387       .  A
C275        C291   1.415   1_545  A
C276        C292   1.416       .  A
C276        C284   1.388       .  A
C277        C285   1.387       .  A
C277        C294   1.414   1_655  A
C278        C293   1.414       .  A
C278        C286   1.387       .  A
C279        C291   1.413       .  A
C279        C287   1.387       .  A
C280        C294   1.411       .  A
C280        C288   1.385       .  A
C281        C289   1.386       .  A
C281        C292   1.412   1_655  A
C282        C290   1.386       .  A
C282        C293   1.413   1_545  A
C283        C284   1.376       .  A
C283        H295   1.082       .  S
C284        H296   1.082       .  S
C285        C286   1.375       .  A
C285        H297   1.082       .  S
C286        H298   1.082       .  S
C287        C288   1.372       .  A
C287        H299   1.082       .  S
C288        H300   1.082       .  S
C289        C290   1.373       .  A
C289        H301   1.082       .  S
C290        H302   1.082       .  S
C291        C757   1.483       .  S
C292        C517   1.484       .  S
C293        C817   1.485       .  S
C294        C584   1.485       .  S
N305        C310   1.352       .  A
N305        C309   1.353       .  A
N305        H337   1.038       .  S
N306        C313   1.351       .  A
N306        C314   1.351       .  A
N307        C312   1.352       .  A
N307        C311   1.352       .  A
N307        H338   1.038       .  S
N308        C315   1.351       .  A
N308        C316   1.352       .  A
C309        C317   1.387       .  A
C309        C325   1.416       .  A
C310        C326   1.416   1_545  A
C310        C318   1.388       .  A
C311        C319   1.387       .  A
C311        C328   1.414       .  A
C312        C327   1.413   1_556  A
C312        C320   1.388       .  A
C313        C325   1.413   1_556  A
C313        C321   1.386       .  A
C314        C328   1.413   1_545  A
C314        C322   1.386       .  A
C315        C323   1.387       .  A
C315        C326   1.414       .  A
C316        C324   1.386       .  A
C316        C327   1.412       .  A
C317        C318   1.377       .  A
C317        H329   1.082       .  S
C318        H330   1.082       .  S
C319        C320   1.374       .  A
C319        H331   1.082       .  S
C320        H332   1.082       .  S
C321        C322   1.373       .  A
C321        H333   1.082       .  S
C322        H334   1.082       .  S
C323        C324   1.373       .  A
C323        H335   1.082       .  S
C324        H336   1.082       .  S
C325       C1084   1.486       .  S
C326        C644   1.483       .  S
C327        C924   1.482       .  S
C328        C837   1.484       .  S
N339        C344   1.352       .  A
N339        C343   1.352       .  A
N339        H371   1.039       .  S
N340        C347   1.351       .  A
N340        C348   1.350       .  A
N341        C346   1.353       .  A
N341        C345   1.353       .  A
N341        H372   1.037       .  S
N342        C349   1.350       .  A
N342        C350   1.349       .  A
C343        C351   1.387       .  A
C343        C359   1.413   1_545  A
C344        C360   1.412   1_554  A
C344        C352   1.387       .  A
C345        C353   1.387       .  A
C345        C362   1.415   1_556  A
C346        C361   1.414       .  A
C346        C354   1.387       .  A
C347        C359   1.411       .  A
C347        C355   1.386       .  A
C348        C362   1.411       .  A
C348        C356   1.386       .  A
C349        C357   1.386       .  A
C349        C360   1.410       .  A
C350        C358   1.387       .  A
C350        C361   1.410   1_545  A
C351        C352   1.373       .  A
C351        H363   1.082       .  S
C352        H364   1.082       .  S
C353        C354   1.375       .  A
C353        H365   1.082       .  S
C354        H366   1.082       .  S
C355        C356   1.372       .  A
C355        H367   1.082       .  S
C356        H368   1.082       .  S
C357        C358   1.370       .  A
C357        H369   1.082       .  S
C358        H370   1.082       .  S
C359        C704   1.485       .  S
C360        C997   1.480       .  S
C361        C744   1.480       .  S
C362        C864   1.481       .  S
C373        C374   1.401       .  A
C373        C378   1.396       .  A
C373        F391   1.358       .  S
C374        C379   1.476       .  S
C374        C375   1.404   1_455  A
C375        C376   1.398       .  A
C375        F380   1.358       .  S
C376        C377   1.411   1_655  A
C376        F392   1.358       .  S
C377        C378   1.411       .  A
C378        F381   1.358       .  S
C379        C382   1.405       .  A
C379        C386   1.406       .  A
C382        C383   1.397       .  A
C382        F387   1.358   1_455  S
C383        C384   1.403       .  A
C383        F389   1.357   1_455  S
C384        C385   1.404       .  A
C385        C386   1.398       .  A
C385        F388   1.358       .  S
C386        F390   1.358       .  S
C393        C394   1.407   1_655  A
C393        C398   1.401       .  A
C393        F411   1.358       .  S
C394        C399   1.487       .  S
C394        C395   1.405       .  A
C395        C396   1.397       .  A
C395        F400   1.358       .  S
C396        C397   1.411       .  A
C396        F412   1.358       .  S
C397        C398   1.411   1_455  A
C398        F401   1.358       .  S
C399        C402   1.408       .  A
C399        C406   1.409       .  A
C402        C403   1.400       .  A
C402        F407   1.358   1_455  S
C403        C404   1.405       .  A
C403        F409   1.358   1_455  S
C404        C405   1.403       .  A
C405        C406   1.399       .  A
C405        F408   1.358       .  S
C406        F410   1.358       .  S
C413        C414   1.404       .  A
C413        C418   1.397       .  A
C413        F431   1.358       .  S
C414        C419   1.471       .  S
C414        C415   1.401   1_455  A
C415        C416   1.395       .  A
C415        F420   1.358       .  S
C416        C417   1.408   1_655  A
C416        F432   1.358       .  S
C417        C418   1.406       .  A
C418        F421   1.358       .  S
C419        C422   1.401       .  A
C419        C426   1.403   1_455  A
C422        C423   1.395       .  A
C422        F427   1.358       .  S
C423        C424   1.408       .  A
C423        F429   1.358       .  S
C424        C425   1.409   1_455  A
C425        C426   1.399       .  A
C425        F428   1.358       .  S
C426        F430   1.358       .  S
C433        C434   1.410       .  A
C433        C438   1.402       .  A
C433        F451   1.358   1_455  S
C434        C439   1.493       .  S
C434        C435   1.410       .  A
C435        C436   1.402       .  A
C435        F440   1.358       .  S
C436        C437   1.403       .  A
C436        F452   1.357       .  S
C437        C438   1.404       .  A
C438        F441   1.358   1_455  S
C439        C442   1.408       .  A
C439        C446   1.407   1_455  A
C442        C443   1.403       .  A
C442        F447   1.358       .  S
C443        C444   1.411       .  A
C443        F449   1.358       .  S
C444        C445   1.410   1_455  A
C445        C446   1.399       .  A
C445        F448   1.358       .  S
C446        F450   1.357       .  S
C453        C454   1.406       .  A
C453        C458   1.396       .  A
C453        F471   1.358       .  S
C454        C459   1.477       .  S
C454        C455   1.406   1_455  A
C455        C456   1.397       .  A
C455        F460   1.358       .  S
C456        C457   1.403   1_655  A
C456        F472   1.358       .  S
C457        C458   1.402       .  A
C458        F461   1.357       .  S
C459        C462   1.403       .  A
C459        C466   1.403   1_455  A
C462        C463   1.396       .  A
C462        F467   1.358       .  S
C463        C464   1.410       .  A
C463        F469   1.358       .  S
C464        C465   1.411   1_455  A
C465        C466   1.397       .  A
C465        F468   1.358       .  S
C466        F470   1.358       .  S
C473        C474   1.406       .  A
C473        C478   1.401       .  A
C473        F491   1.358       .  S
C474        C479   1.484       .  S
C474        C475   1.404   1_455  A
C475        C476   1.397       .  A
C475        F480   1.358       .  S
C476        C477   1.413   1_655  A
C476        F492   1.358       .  S
C477        C478   1.412       .  A
C478        F481   1.358       .  S
C479        C482   1.407       .  A
C479        C486   1.408   1_455  A
C482        C483   1.400       .  A
C482        F487   1.358       .  S
C483        C484   1.405       .  A
C483        F489   1.358       .  S
C484        C485   1.404   1_455  A
C485        C486   1.399       .  A
C485        F488   1.358       .  S
C486        F490   1.358       .  S
C493        C494   1.404       .  A
C493        C498   1.399       .  A
C493        F511   1.358       .  S
C494        C499   1.475       .  S
C494        C495   1.404   1_455  A
C495        C496   1.400       .  A
C495        F500   1.357       .  S
C496        C497   1.404   1_655  A
C496        F512   1.357       .  S
C497        C498   1.406       .  A
C498        F501   1.358       .  S
C499        C502   1.403       .  A
C499        C506   1.401   1_455  A
C502        C503   1.401       .  A
C502        F507   1.358       .  S
C503        C504   1.410       .  A
C503        F509   1.358       .  S
C504        C505   1.410   1_455  A
C505        C506   1.398       .  A
C505        F508   1.358       .  S
C506        F510   1.358       .  S
C513        C514   1.406       .  A
C513        C518   1.398       .  A
C513        F531   1.358   1_455  S
C514        C519   1.480       .  S
C514        C515   1.406       .  A
C515        C516   1.400       .  A
C515        F520   1.358       .  S
C516        C517   1.404       .  A
C516        F532   1.358       .  S
C517        C518   1.404       .  A
C518        F521   1.357   1_455  S
C519        C522   1.405       .  A
C519        C526   1.404   1_455  A
C522        C523   1.398       .  A
C522        F527   1.358       .  S
C523        C524   1.407       .  A
C523        F529   1.358       .  S
C524        C525   1.409   1_455  A
C525        C526   1.399       .  A
C525        F528   1.358       .  S
C526        F530   1.358       .  S
C533        C534   1.407   1_655  A
C533        C538   1.397       .  A
C533        F551   1.358       .  S
C534        C539   1.485       .  S
C534        C535   1.405       .  A
C535        C536   1.399       .  A
C535        F540   1.358       .  S
C536        C537   1.411       .  A
C536        F552   1.358       .  S
C537        C538   1.409   1_455  A
C538        F541   1.358       .  S
C539        C542   1.406   1_455  A
C539        C546   1.408       .  A
C542        C543   1.396       .  A
C542        F547   1.358       .  S
C543        C544   1.407   1_655  A
C543        F549   1.358       .  S
C544        C545   1.408       .  A
C545        C546   1.399       .  A
C545        F548   1.358       .  S
C546        F550   1.358       .  S
C553        C554   1.406       .  A
C553        C558   1.401       .  A
C553        F571   1.358       .  S
C554        C559   1.484       .  S
C554        C555   1.404   1_455  A
C555        C556   1.396       .  A
C555        F560   1.358       .  S
C556        C557   1.411   1_655  A
C556        F572   1.358       .  S
C557        C558   1.411       .  A
C558        F561   1.358       .  S
C559        C562   1.408       .  A
C559        C566   1.407   1_455  A
C562        C563   1.399       .  A
C562        F567   1.358       .  S
C563        C564   1.406       .  A
C563        F569   1.358       .  S
C564        C565   1.405   1_455  A
C565        C566   1.396       .  A
C565        F568   1.358       .  S
C566        F570   1.358       .  S
C573        C574   1.405   1_655  A
C573        C578   1.399       .  A
C573        F591   1.358       .  S
C574        C579   1.482       .  S
C574        C575   1.403       .  A
C575        C576   1.396       .  A
C575        F580   1.358       .  S
C576        C577   1.411       .  A
C576        F592   1.358       .  S
C577        C578   1.412   1_455  A
C578        F581   1.358       .  S
C579        C582   1.408       .  A
C579        C586   1.406   1_455  A
C582        C583   1.401       .  A
C582        F587   1.358       .  S
C583        C584   1.405       .  A
C583        F589   1.358       .  S
C584        C585   1.403   1_455  A
C585        C586   1.396       .  A
C585        F588   1.358       .  S
C586        F590   1.358       .  S
C593        C594   1.405   1_655  A
C593        C598   1.400       .  A
C593        F611   1.358       .  S
C594        C599   1.485       .  S
C594        C595   1.404       .  A
C595        C596   1.399       .  A
C595        F600   1.358       .  S
C596        C597   1.412       .  A
C596        F612   1.358       .  S
C597        C598   1.413   1_455  A
C598        F601   1.358       .  S
C599        C602   1.406   1_455  A
C599        C606   1.408       .  A
C602        C603   1.399       .  A
C602        F607   1.358       .  S
C603        C604   1.406   1_655  A
C603        F609   1.358       .  S
C604        C605   1.406       .  A
C605        C606   1.400       .  A
C605        F608   1.358       .  S
C606        F610   1.358       .  S
C613        C614   1.402       .  A
C613        C618   1.399       .  A
C613        F631   1.358       .  S
C614        C619   1.478       .  S
C614        C615   1.402   1_565  A
C615        C616   1.400       .  A
C615        F620   1.358       .  S
C616        C617   1.413   1_545  A
C616        F632   1.358       .  S
C617        C618   1.414       .  A
C618        F621   1.358       .  S
C619        C622   1.404       .  A
C619        C626   1.405   1_565  A
C622        C623   1.398       .  A
C622        F627   1.358       .  S
C623        C624   1.404       .  A
C623        F629   1.358       .  S
C624        C625   1.406   1_565  A
C625        C626   1.402       .  A
C625        F628   1.358       .  S
C626        F630   1.358       .  S
C633        C634   1.404       .  A
C633        C638   1.399       .  A
C633        F651   1.358       .  S
C634        C639   1.479       .  S
C634        C635   1.404   1_565  A
C635        C636   1.399       .  A
C635        F640   1.358       .  S
C636        C637   1.411   1_545  A
C636        F652   1.358       .  S
C637        C638   1.409       .  A
C638        F641   1.357       .  S
C639        C642   1.407       .  A
C639        C646   1.405       .  A
C642        C643   1.400       .  A
C642        F647   1.358       .  S
C643        C644   1.404       .  A
C643        F649   1.358       .  S
C644        C645   1.403       .  A
C645        C646   1.397       .  A
C645        F648   1.358       .  S
C646        F650   1.358       .  S
C653        C654   1.406   1_545  A
C653        C658   1.398       .  A
C653        F671   1.358       .  S
C654        C659   1.484       .  S
C654        C655   1.406       .  A
C655        C656   1.400       .  A
C655        F660   1.358       .  S
C656        C657   1.410       .  A
C656        F672   1.358       .  S
C657        C658   1.407   1_565  A
C658        F661   1.358       .  S
C659        C662   1.405   1_565  A
C659        C666   1.407       .  A
C662        C663   1.397       .  A
C662        F667   1.358       .  S
C663        C664   1.408   1_545  A
C663        F669   1.358       .  S
C664        C665   1.409       .  A
C665        C666   1.401       .  A
C665        F668   1.358       .  S
C666        F670   1.358       .  S
C673        C674   1.407       .  A
C673        C678   1.396       .  A
C673        F691   1.358       .  S
C674        C679   1.484       .  S
C674        C675   1.408   1_565  A
C675        C676   1.402       .  A
C675        F680   1.358       .  S
C676        C677   1.406   1_545  A
C676        F692   1.358       .  S
C677        C678   1.402       .  A
C678        F681   1.357       .  S
C679        C682   1.405       .  A
C679        C686   1.405   1_565  A
C682        C683   1.396       .  A
C682        F687   1.358       .  S
C683        C684   1.409       .  A
C683        F689   1.358       .  S
C684        C685   1.412   1_565  A
C685        C686   1.400       .  A
C685        F688   1.358       .  S
C686        F690   1.358       .  S
C693        C694   1.402       .  A
C693        C698   1.396       .  A
C693        F711   1.358       .  S
C694        C699   1.478       .  S
C694        C695   1.403   1_565  A
C695        C696   1.401       .  A
C695        F700   1.358       .  S
C696        C697   1.414   1_545  A
C696        F712   1.358       .  S
C697        C698   1.412       .  A
C698        F701   1.357       .  S
C699        C702   1.405   1_565  A
C699        C706   1.406       .  A
C702        C703   1.398       .  A
C702        F707   1.358       .  S
C703        C704   1.405   1_545  A
C703        F709   1.358       .  S
C704        C705   1.404       .  A
C705        C706   1.397       .  A
C705        F708   1.358       .  S
C706        F710   1.358       .  S
C713        C714   1.403   1_545  A
C713        C718   1.399       .  A
C713        F731   1.358       .  S
C714        C719   1.485       .  S
C714        C715   1.405       .  A
C715        C716   1.401       .  A
C715        F720   1.358       .  S
C716        C717   1.414       .  A
C716        F732   1.358       .  S
C717        C718   1.412   1_565  A
C718        F721   1.357       .  S
C719        C722   1.408       .  A
C719        C726   1.407       .  A
C722        C723   1.400   1_565  A
C722        F727   1.358   1_565  S
C723        C724   1.404   1_545  A
C723        F729   1.358       .  S
C724        C725   1.403       .  A
C725        C726   1.400       .  A
C725        F728   1.358       .  S
C726        F730   1.358       .  S
C733        C734   1.402   1_545  A
C733        C738   1.400       .  A
C733        F751   1.358       .  S
C734        C739   1.472       .  S
C734        C735   1.399       .  A
C735        C736   1.395       .  A
C735        F740   1.358       .  S
C736        C737   1.414       .  A
C736        F752   1.358       .  S
C737        C738   1.413   1_565  A
C738        F741   1.357       .  S
C739        C742   1.404       .  A
C739        C746   1.404   1_565  A
C742        C743   1.396       .  A
C742        F747   1.358       .  S
C743        C744   1.402       .  A
C743        F749   1.357       .  S
C744        C745   1.405       .  A
C745        C746   1.399   1_565  A
C745        F748   1.358   1_565  S
C746        F750   1.358       .  S
C753        C754   1.407   1_545  A
C753        C758   1.399       .  A
C753        F771   1.358       .  S
C754        C759   1.479       .  S
C754        C755   1.405       .  A
C755        C756   1.396       .  A
C755        F760   1.358       .  S
C756        C757   1.403       .  A
C756        F772   1.358       .  S
C757        C758   1.404   1_565  A
C758        F761   1.358       .  S
C759        C762   1.402   1_565  A
C759        C766   1.405       .  A
C762        C763   1.396       .  A
C762        F767   1.358       .  S
C763        C764   1.413   1_545  A
C763        F769   1.358       .  S
C764        C765   1.411       .  A
C765        C766   1.399       .  A
C765        F768   1.358       .  S
C766        F770   1.358       .  S
C773        C774   1.407   1_545  A
C773        C778   1.398       .  A
C773        F791   1.358       .  S
C774        C779   1.486       .  S
C774        C775   1.407       .  A
C775        C776   1.399       .  A
C775        F780   1.358       .  S
C776        C777   1.408       .  A
C776        F792   1.358       .  S
C777        C778   1.407   1_565  A
C778        F781   1.358       .  S
C779        C782   1.407       .  A
C779        C786   1.406   1_565  A
C782        C783   1.399       .  A
C782        F787   1.358       .  S
C783        C784   1.409       .  A
C783        F789   1.358       .  S
C784        C785   1.412   1_565  A
C785        C786   1.398       .  A
C785        F788   1.358       .  S
C786        F790   1.358       .  S
C793        C794   1.405   1_545  A
C793        C798   1.400       .  A
C793        F811   1.358       .  S
C794        C799   1.483       .  S
C794        C795   1.404       .  A
C795        C796   1.396       .  A
C795        F800   1.358       .  S
C796        C797   1.413       .  A
C796        F812   1.358       .  S
C797        C798   1.412   1_565  A
C798        F801   1.358       .  S
C799        C802   1.407   1_565  A
C799        C806   1.407       .  A
C802        C803   1.398       .  A
C802        F807   1.358       .  S
C803        C804   1.404   1_545  A
C803        F809   1.358       .  S
C804        C805   1.404       .  A
C805        C806   1.398       .  A
C805        F808   1.358       .  S
C806        F810   1.358       .  S
C813        C814   1.407       .  A
C813        C818   1.401       .  A
C813        F831   1.358       .  S
C814        C819   1.484       .  S
C814        C815   1.407       .  A
C815        C816   1.398   1_565  A
C815        F820   1.358   1_565  S
C816        C817   1.403   1_545  A
C816        F832   1.358       .  S
C817        C818   1.405       .  A
C818        F821   1.358       .  S
C819        C822   1.404       .  A
C819        C826   1.404   1_565  A
C822        C823   1.401       .  A
C822        F827   1.358       .  S
C823        C824   1.414       .  A
C823        F829   1.358       .  S
C824        C825   1.412   1_565  A
C825        C826   1.399       .  A
C825        F828   1.358       .  S
C826        F830   1.358       .  S
C833        C834   1.406   1_545  A
C833        C838   1.397       .  A
C833        F851   1.358       .  S
C834        C839   1.480       .  S
C834        C835   1.406       .  A
C835        C836   1.399       .  A
C835        F840   1.358       .  S
C836        C837   1.405       .  A
C836        F852   1.358       .  S
C837        C838   1.404   1_565  A
C838        F841   1.358       .  S
C839        C842   1.403   1_565  A
C839        C846   1.403       .  A
C842        C843   1.398       .  A
C842        F847   1.358       .  S
C843        C844   1.413   1_545  A
C843        F849   1.358       .  S
C844        C845   1.413       .  A
C845        C846   1.399       .  A
C845        F848   1.358       .  S
C846        F850   1.358       .  S
C853        C854   1.401       .  A
C853        C858   1.399       .  A
C853        F871   1.358       .  S
C854        C859   1.474       .  S
C854        C855   1.400   1_554  A
C855        C856   1.397       .  A
C855        F860   1.358       .  S
C856        C857   1.412   1_556  A
C856        F872   1.357       .  S
C857        C858   1.414       .  A
C858        F861   1.358       .  S
C859        C862   1.405       .  A
C859        C866   1.404   1_554  A
C862        C863   1.399       .  A
C862        F867   1.358       .  S
C863        C864   1.405       .  A
C863        F869   1.358       .  S
C864        C865   1.402   1_554  A
C865        C866   1.397       .  A
C865        F868   1.358       .  S
C866        F870   1.358       .  S
C873        C874   1.405       .  A
C873        C878   1.400       .  A
C873        F891   1.358       .  S
C874        C879   1.483       .  S
C874        C875   1.405   1_556  A
C875        C876   1.398       .  A
C875        F880   1.358       .  S
C876        C877   1.408       .  A
C876        F892   1.358       .  S
C877        C878   1.410   1_554  A
C878        F881   1.358       .  S
C879        C882   1.407   1_556  A
C879        C886   1.407       .  A
C882        C883   1.400       .  A
C882        F887   1.358       .  S
C883        C884   1.404   1_554  A
C883        F889   1.358       .  S
C884        C885   1.403       .  A
C885        C886   1.399       .  A
C885        F888   1.357       .  S
C886        F890   1.358       .  S
C893        C894   1.403   1_554  A
C893        C898   1.397       .  A
C893        F911   1.358       .  S
C894        C899   1.480       .  S
C894        C895   1.404       .  A
C895        C896   1.398       .  A
C895        F900   1.358       .  S
C896        C897   1.413       .  A
C896        F912   1.358       .  S
C897        C898   1.411   1_556  A
C898        F901   1.358       .  S
C899        C902   1.406   1_556  A
C899        C906   1.406       .  A
C902        C903   1.397       .  A
C902        F907   1.358       .  S
C903        C904   1.404   1_554  A
C903        F909   1.358       .  S
C904        C905   1.405       .  A
C905        C906   1.399       .  A
C905        F908   1.358       .  S
C906        F910   1.358       .  S
C913        C914   1.404   1_556  A
C913        C918   1.400       .  A
C913        F931   1.358       .  S
C914        C919   1.475       .  S
C914        C915   1.401       .  A
C915        C916   1.396       .  A
C915        F920   1.358       .  S
C916        C917   1.411       .  A
C916        F932   1.358       .  S
C917        C918   1.411   1_554  A
C918        F921   1.358       .  S
C919        C922   1.405       .  A
C919        C926   1.404       .  A
C922        C923   1.398       .  A
C922        F927   1.358       .  S
C923        C924   1.404       .  A
C923        F929   1.358       .  S
C924        C925   1.404       .  A
C925        C926   1.399       .  A
C925        F928   1.358       .  S
C926        F930   1.358       .  S
C933        C934   1.406   1_556  A
C933        C938   1.399       .  A
C933        F951   1.358       .  S
C934        C939   1.480       .  S
C934        C935   1.406       .  A
C935        C936   1.399       .  A
C935        F940   1.358       .  S
C936        C937   1.404       .  A
C936        F952   1.358       .  S
C937        C938   1.403   1_554  A
C938        F941   1.358       .  S
C939        C942   1.403       .  A
C939        C946   1.402   1_554  A
C942        C943   1.400       .  A
C942        F947   1.358       .  S
C943        C944   1.413       .  A
C943        F949   1.358       .  S
C944        C945   1.414   1_554  A
C945        C946   1.398       .  A
C945        F948   1.358       .  S
C946        F950   1.358       .  S
C953        C954   1.406       .  A
C953        C958   1.398       .  A
C953        F971   1.358       .  S
C954        C959   1.482       .  S
C954        C955   1.406   1_556  A
C955        C956   1.400       .  A
C955        F960   1.358       .  S
C956        C957   1.406   1_554  A
C956        F972   1.358       .  S
C957        C958   1.405       .  A
C958        F961   1.358       .  S
C959        C962   1.404       .  A
C959        C966   1.403   1_556  A
C962        C963   1.400       .  A
C962        F967   1.358       .  S
C963        C964   1.412       .  A
C963        F969   1.357       .  S
C964        C965   1.413   1_556  A
C965        C966   1.400       .  A
C965        F968   1.358       .  S
C966        F970   1.358       .  S
C973        C974   1.401   1_554  A
C973        C978   1.396       .  A
C973        F991   1.358       .  S
C974        C979   1.469       .  S
C974        C975   1.400       .  A
C975        C976   1.397       .  A
C975        F980   1.358       .  S
C976        C977   1.412       .  A
C976        F992   1.358       .  S
C977        C978   1.411   1_556  A
C978        F981   1.358       .  S
C979        C982   1.402       .  A
C979        C986   1.404   1_556  A
C982        C983   1.396       .  A
C982        F987   1.358       .  S
C983        C984   1.405       .  A
C983        F989   1.358       .  S
C984        C985   1.403   1_556  A
C985        C986   1.397       .  A
C985        F988   1.358       .  S
C986        F990   1.358       .  S
C993        C994   1.405       .  A
C993        C998   1.396       .  A
C993       F1011   1.358       .  S
C994        C999   1.476       .  S
C994        C995   1.406   1_556  A
C995        C996   1.397       .  A
C995       F1000   1.358       .  S
C996        C997   1.403   1_554  A
C996       F1012   1.358       .  S
C997        C998   1.403       .  A
C998       F1001   1.358       .  S
C999       C1002   1.402       .  A
C999       C1006   1.401   1_556  A
C1002      C1003   1.398       .  A
C1002      F1007   1.358       .  S
C1003      C1004   1.413       .  A
C1003      F1009   1.358       .  S
C1004      C1005   1.413   1_556  A
C1005      C1006   1.397       .  A
C1005      F1008   1.357       .  S
C1006      F1010   1.358       .  S
C1013      C1014   1.405       .  A
C1013      C1018   1.401       .  A
C1013      F1031   1.358       .  S
C1014      C1019   1.479       .  S
C1014      C1015   1.402   1_554  A
C1015      C1016   1.400       .  A
C1015      F1020   1.358       .  S
C1016      C1017   1.410   1_556  A
C1016      F1032   1.358       .  S
C1017      C1018   1.408       .  A
C1018      F1021   1.358       .  S
C1019      C1022   1.405   1_554  A
C1019      C1026   1.403       .  A
C1022      C1023   1.400       .  A
C1022      F1027   1.358       .  S
C1023      C1024   1.406   1_556  A
C1023      F1029   1.358       .  S
C1024      C1025   1.409       .  A
C1025      C1026   1.399       .  A
C1025      F1028   1.358       .  S
C1026      F1030   1.358       .  S
C1033      C1034   1.407   1_556  A
C1033      C1038   1.401       .  A
C1033      F1051   1.358       .  S
C1034      C1039   1.486       .  S
C1034      C1035   1.405       .  A
C1035      C1036   1.398       .  A
C1035      F1040   1.358       .  S
C1036      C1037   1.410       .  A
C1036      F1052   1.357       .  S
C1037      C1038   1.411   1_554  A
C1038      F1041   1.358       .  S
C1039      C1042   1.406   1_554  A
C1039      C1046   1.409       .  A
C1042      C1043   1.396       .  A
C1042      F1047   1.358       .  S
C1043      C1044   1.407   1_556  A
C1043      F1049   1.358       .  S
C1044      C1045   1.406       .  A
C1045      C1046   1.400       .  A
C1045      F1048   1.358       .  S
C1046      F1050   1.358       .  S
C1053      C1054   1.407   1_556  A
C1053      C1058   1.400       .  A
C1053      F1071   1.358       .  S
C1054      C1059   1.489       .  S
C1054      C1055   1.407       .  A
C1055      C1056   1.403       .  A
C1055      F1060   1.358       .  S
C1056      C1057   1.408       .  A
C1056      F1072   1.358       .  S
C1057      C1058   1.406   1_554  A
C1058      F1061   1.358       .  S
C1059      C1062   1.407       .  A
C1059      C1066   1.404   1_554  A
C1062      C1063   1.405       .  A
C1062      F1067   1.358       .  S
C1063      C1064   1.414       .  A
C1063      F1069   1.358       .  S
C1064      C1065   1.412   1_554  A
C1065      C1066   1.398       .  A
C1065      F1068   1.357       .  S
C1066      F1070   1.358       .  S
C1073      C1074   1.406   1_556  A
C1073      C1078   1.404       .  A
C1073      F1091   1.358       .  S
C1074      C1079   1.483       .  S
C1074      C1075   1.404       .  A
C1075      C1076   1.399       .  A
C1075      F1080   1.358       .  S
C1076      C1077   1.407       .  A
C1076      F1092   1.358       .  S
C1077      C1078   1.410   1_554  A
C1078      F1081   1.358       .  S
C1079      C1082   1.406       .  A
C1079      C1086   1.407   1_554  A
C1082      C1083   1.401       .  A
C1082      F1087   1.358       .  S
C1083      C1084   1.405       .  A
C1083      F1089   1.358       .  S
C1084      C1085   1.403   1_554  A
C1085      C1086   1.400       .  A
C1085      F1088   1.358       .  S
C1086      F1090   1.358       .  S
