geometry optimzed in LAMMPS
_audit_creation_date              2020-12-01 
_audit_creation_method            'lammps2cif' 
_symmetry_space_group_name_H-M    'P1' 
_symmetry_Int_Tables_number       1 
_symmetry_cell_setting            triclinic 
loop_ 
_symmetry_equiv_pos_as_xyz 
  x,y,z 
_cell_length_a                    33.69271094 
_cell_length_b                    33.687209846213385 
_cell_length_c                    36.31509941000246 
_cell_angle_alpha                 90.00000594404085 
_cell_angle_beta                  90.00001454676142 
_cell_angle_gamma                 119.98670442063445 
loop_ 
_atom_site_label 
_atom_site_type_symbol 
_atom_site_fract_x 
_atom_site_fract_y 
_atom_site_fract_z 
_atom_site_charge 
O1          O  0.27009847  0.30641941  0.20953044    -0.84000
C2          C  0.37109378  0.22782403  0.17606973     0.95400
O3          O  0.34121710  0.23543894  0.16326727    -0.73100
O4          O  0.28107217  0.26356883  0.15388709    -0.76700
Al5        Al  0.34035954  0.28518050  0.18286665     1.49000
C6          C  0.23930660  0.23195939  0.16115403     0.90700
O7          O  0.23561708  0.18442719  0.25879885    -0.82900
O8          O  0.30232788  0.23560929  0.29789300    -0.76400
Al9        Al  0.25654567  0.24655643  0.23300637     1.90100
O10         O  0.29203991  0.17387534  0.24130689    -0.75500
O11         O  0.37996703  0.29141837  0.26422428    -0.75400
O12         O  0.37451387  0.22563389  0.21128003    -0.81000
O13         O  0.40355365  0.30982331  0.20739195    -0.79200
O14         O  0.31058451  0.25452080  0.22218939    -1.15400
O15         O  0.34380168  0.33902282  0.19731433    -0.74600
C16         C  0.30808411  0.34115964  0.19838348     0.96200
C17         C  0.25676916  0.16129481  0.26013310     0.92600
Al18       Al  0.33604259  0.23300281  0.25202721     1.55600
O19         O  0.22929436  0.21286047  0.19173657    -0.79200
C20         C  0.41187352  0.30636925  0.24173096     0.96700
C21         C  0.27784465  0.25489284  0.30095070     0.91600
O22         O  0.27866034  0.28002520  0.27559698    -0.84500
O23         O  0.20915043  0.16476747  0.04286268    -0.84000
C24         C  0.10815158  0.24335798  0.00940730     0.95400
O25         O  0.13803162  0.23574811  0.99660491    -0.73100
O26         O  0.19817616  0.20761762  0.32055383    -0.76700
Al27       Al  0.13888835  0.18600488  0.01620046     1.49000
C28         C  0.23994163  0.23922706  0.32782049     0.90700
O29         O  0.24362716  0.28675798  0.09213323    -0.82900
O30         O  0.17691607  0.23556921  0.13122814    -0.76400
Al31       Al  0.22270249  0.22463035  0.06633944     1.90100
O32         O  0.18719867  0.29730370  0.07464626    -0.75500
O33         O  0.09927705  0.17975577  0.09755833    -0.75400
O34         O  0.10472781  0.24554334  0.04461767    -0.81000
O35         O  0.07569255  0.16135725  0.04072501    -0.79200
O36         O  0.16866184  0.21666231  0.05552429    -1.15400
O37         O  0.13544683  0.13216402  0.03064623    -0.74600
C38         C  0.17116421  0.13002740  0.03171558     0.96200
C39         C  0.22247117  0.30988641  0.09347054     0.92600
Al40       Al  0.14319984  0.23817458  0.08536387     1.55600
O41         O  0.24995243  0.25832808  0.02506893    -0.79200
C42         C  0.06737055  0.16480531  0.07506462     0.96700
C43         C  0.20140421  0.21629101  0.13428407     0.91600
O44         O  0.20059187  0.19116120  0.10892967    -0.84500
O45         O  0.16879656  0.44524083  0.98731863    -0.84000
C46         C  0.24738248  0.12482117  0.28718011     0.95400
O47         O  0.23973692  0.08732115  0.27436581    -0.73100
O48         O  0.21161938  0.99904792  0.26500383    -0.76700
Al49       Al  0.19001984  0.03673948  0.29398128     1.49000
C50         C  0.24323477  0.48888772  0.27226388     0.90700
O51         O  0.29079770  0.03272453  0.03657140    -0.82900
O52         O  0.23961943  0.04828990  0.07566205    -0.76400
Al53       Al  0.22866586  0.49154403  0.01078257     1.90100
O54         O  0.30134882  0.09970668  0.01908931    -0.75500
O55         O  0.18381462  0.07013819  0.04199497    -0.75400
O56         O  0.24958461  0.13042938  0.32238915    -0.81000
O57         O  0.16539038  0.07530598  0.31849794    -0.79200
O58         O  0.22069979  0.03762658  0.99996414    -1.15400
O59         O  0.13618939  0.48635774  0.30844780    -0.74600
C60         C  0.13404924  0.44849641  0.30952139     0.96200
C61         C  0.31393207  0.07700435  0.03791014     0.92600
Al62       Al  0.24222069  0.08460202  0.02980023     1.55600
O63         O  0.26234417  0.49797258  0.30284077    -0.79200
C64         C  0.16885691  0.08709207  0.01949826     0.96700
C65         C  0.22033857  0.00452936  0.07872385     0.91600
O66         O  0.19521142  0.48021467  0.05337370    -0.84500
O67         O  0.31043642  0.02593799  0.15398421    -0.84000
C68         C  0.23185674  0.34635914  0.12051765     0.95400
O69         O  0.23949704  0.38385741  0.10770340    -0.73100
O70         O  0.26761467  0.47213088  0.09833737    -0.76700
Al71       Al  0.28921544  0.43444006  0.12731529     1.49000
C72         C  0.23599897  0.48229048  0.10559700     0.90700
O73         O  0.18843730  0.43845110  0.20323894    -0.82900
O74         O  0.23962219  0.42289209  0.24233045    -0.76400
Al75       Al  0.25056730  0.47963377  0.17744891     1.90100
O76         O  0.17789248  0.37146946  0.18576189    -0.75500
O77         O  0.29543156  0.40104856  0.20866260    -0.75400
O78         O  0.22965891  0.34075188  0.15572677    -0.81000
O79         O  0.31384980  0.39587683  0.15183131    -0.79200
O80         O  0.25853740  0.43355330  0.16663243    -1.15400
O81         O  0.34304424  0.98482113  0.14178024    -0.74600
C82         C  0.34518392  0.02268196  0.14285387     0.96200
C83         C  0.16530695  0.39417133  0.20458070     0.92600
Al84       Al  0.23702224  0.38657966  0.19647022     1.55600
O85         O  0.21688714  0.47320152  0.13617304    -0.79200
C86         C  0.31038893  0.38409429  0.18616556     0.96700
C87         C  0.25889782  0.46665220  0.24539052     0.91600
O88         O  0.28402221  0.49096777  0.22003965    -0.84500
O89         O  0.44926975  0.26606576  0.26508606    -0.84000
C90         C  0.12882167  0.36710010  0.23162405     0.95400
O91         O  0.09132129  0.33727972  0.21880296    -0.73100
O92         O  0.00305651  0.27708868  0.20945472    -0.76700
Al93       Al  0.04072999  0.33637982  0.23845525     1.49000
C94         C  0.99293219  0.23531537  0.21670287     0.90700
O95         O  0.03678226  0.23155452  0.31433831    -0.82900
O96         O  0.05229612  0.29826284  0.02011263    -0.76400
Al97       Al  0.49559011  0.25250824  0.28855206     1.90100
O98         O  0.10371830  0.28797466  0.29682989    -0.75500
O99         O  0.07416868  0.37596124  0.31981364    -0.75400
O100        O  0.13442742  0.37047309  0.26683524    -0.81000
O101        O  0.07928305  0.39956281  0.26299136    -0.79200
O102        O  0.04164372  0.30657072  0.27775381    -1.15400
O103        O  0.49033433  0.33980137  0.25295682    -0.74600
C104        C  0.45249859  0.30406610  0.25396874     0.96200
C105        C  0.08105345  0.25271390  0.31567444     0.92600
Al106      Al  0.08861457  0.33200050  0.30758271     1.55600
O107        O  0.50206580  0.22530103  0.24726667    -0.79200
C108        C  0.09110402  0.40787464  0.29731963     0.96700
C109        C  0.00854043  0.27376584  0.02316695     0.91600
O110        O  0.48422306  0.27458988  0.99782049    -0.84500
O111        O  0.02997208  0.20510563  0.09842075    -0.84000
C112        C  0.35041837  0.10407564  0.06495334     0.95400
O113        O  0.38792040  0.13389259  0.05213217    -0.73100
O114        O  0.47618510  0.19408382  0.04278800    -0.76700
Al115      Al  0.43851092  0.13479306  0.07178807     1.49000
C116        C  0.48631003  0.23585736  0.05003653     0.90700
O117        O  0.44246307  0.23962238  0.14767076    -0.82900
O118        O  0.42694211  0.17291422  0.18677752    -0.76400
Al119      Al  0.48365279  0.21866432  0.12188590     1.90100
O120        O  0.37552644  0.18320841  0.13015693    -0.75500
O121        O  0.40506432  0.09521557  0.15314641    -0.75400
O122        O  0.34481167  0.10070644  0.10016444    -0.81000
O123        O  0.39995462  0.07161179  0.09632512    -0.79200
O124        O  0.43759687  0.16460384  0.11108557    -1.15400
O125        O  0.98890749  0.13137061  0.08629108    -0.74600
C126        C  0.02674374  0.16710597  0.08730306     0.96200
C127        C  0.39819181  0.21846717  0.14900366     0.92600
Al128      Al  0.39062405  0.13917831  0.14091268     1.55600
O129        O  0.47718127  0.24587369  0.08060134    -0.79200
C130        C  0.38812971  0.06330212  0.13065277     0.96700
C131        C  0.47069825  0.19740597  0.18983365     0.91600
O132        O  0.49501460  0.19657797  0.16448799    -0.84500
O133        O  0.27009845  0.30641932  0.54286382    -0.84000
C134        C  0.37109370  0.22782392  0.50940307     0.95400
O135        O  0.34121703  0.23543882  0.49660063    -0.73100
O136        O  0.28107222  0.26356873  0.48722043    -0.76700
Al137      Al  0.34035957  0.28518047  0.51620001     1.49000
C138        C  0.23930662  0.23195933  0.49448733     0.90700
O139        O  0.23561708  0.18442717  0.59213227    -0.82900
O140        O  0.30232795  0.23560937  0.63122632    -0.76400
Al141      Al  0.25654565  0.24655644  0.56633974     1.90100
O142        O  0.29203985  0.17387527  0.57464027    -0.75500
O143        O  0.37996707  0.29141829  0.59755765    -0.75400
O144        O  0.37451385  0.22563391  0.54461339    -0.81000
O145        O  0.40355374  0.30982338  0.54072535    -0.79200
O146        O  0.31058451  0.25452080  0.55552272    -1.15400
O147        O  0.34380169  0.33902269  0.53064775    -0.74600
C148        C  0.30808410  0.34115951  0.53171684     0.96200
C149        C  0.25676917  0.16129480  0.59346656     0.92600
Al150      Al  0.33604257  0.23300280  0.58536055     1.55600
O151        O  0.22929422  0.21286053  0.52506993    -0.79200
C152        C  0.41187360  0.30636928  0.57506435     0.96700
C153        C  0.27784470  0.25489290  0.63428402     0.91600
O154        O  0.27866042  0.28002527  0.60893031    -0.84500
O155        O  0.20915049  0.16476758  0.37619594    -0.84000
C156        C  0.10815156  0.24335791  0.34274053     0.95400
O157        O  0.13803171  0.23574820  0.32993814    -0.73100
O158        O  0.19817619  0.20761754  0.65388719    -0.76700
Al159      Al  0.13888839  0.18600493  0.34953375     1.49000
C160        C  0.23994167  0.23922705  0.66115381     0.90700
O161        O  0.24362716  0.28675800  0.42546659    -0.82900
O162        O  0.17691618  0.23556921  0.46456140    -0.76400
Al163      Al  0.22270250  0.22463039  0.39967275     1.90100
O164        O  0.18719870  0.29730377  0.40797959    -0.75500
O165        O  0.09927704  0.17975562  0.43089161    -0.75400
O166        O  0.10472777  0.24554322  0.37795093    -0.81000
O167        O  0.07569250  0.16135732  0.37405827    -0.79200
O168        O  0.16866185  0.21666234  0.38885760    -1.15400
O169        O  0.13544685  0.13216408  0.36397968    -0.74600
C170        C  0.17116427  0.13002746  0.36504899     0.96200
C171        C  0.22247124  0.30988649  0.42680384     0.92600
Al172      Al  0.14319985  0.23817454  0.41869718     1.55600
O173        O  0.24995234  0.25832821  0.35840228    -0.79200
C174        C  0.06737050  0.16480524  0.40839793     0.96700
C175        C  0.20140428  0.21629096  0.46761734     0.91600
O176        O  0.20059189  0.19116111  0.44226294    -0.84500
O177        O  0.16879666  0.44524083  0.32065192    -0.84000
C178        C  0.24738249  0.12482114  0.62051356     0.95400
O179        O  0.23973690  0.08732115  0.60769922    -0.73100
O180        O  0.21161937  0.99904781  0.59833720    -0.76700
Al181      Al  0.19001983  0.03673942  0.62731468     1.49000
C182        C  0.24323482  0.48888780  0.60559727     0.90700
O183        O  0.29079775  0.03272454  0.36990484    -0.82900
O184        O  0.23961943  0.04828990  0.40899532    -0.76400
Al185      Al  0.22866595  0.49154405  0.34411590     1.90100
O186        O  0.30134878  0.09970660  0.35242261    -0.75500
O187        O  0.18381461  0.07013812  0.37532828    -0.75400
O188        O  0.24958466  0.13042934  0.65572261    -0.81000
O189        O  0.16539038  0.07530587  0.65183132    -0.79200
O190        O  0.22069983  0.03762658  0.33329745    -1.15400
O191        O  0.13618949  0.48635784  0.64178129    -0.74600
C192        C  0.13404933  0.44849652  0.64285476     0.96200
C193        C  0.31393207  0.07700437  0.37124354     0.92600
Al194      Al  0.24222071  0.08460199  0.36313351     1.55600
O195        O  0.26234421  0.49797267  0.63617417    -0.79200
C196        C  0.16885695  0.08709212  0.35283160     0.96700
C197        C  0.22033847  0.00452936  0.41205714     0.91600
O198        O  0.19521149  0.48021469  0.38670694    -0.84500
O199        O  0.31043644  0.02593806  0.48731753    -0.84000
C200        C  0.23185679  0.34635914  0.45385101     0.95400
O201        O  0.23949714  0.38385745  0.44103683    -0.73100
O202        O  0.26761479  0.47213095  0.43167072    -0.76700
Al203      Al  0.28921550  0.43444007  0.46064873     1.49000
C204        C  0.23599905  0.48229054  0.43893030     0.90700
O205        O  0.18843732  0.43845110  0.53657244    -0.82900
O206        O  0.23962216  0.42289212  0.57566387    -0.76400
Al207      Al  0.25056731  0.47963380  0.51078230     1.90100
O208        O  0.17789248  0.37146952  0.51909518    -0.75500
O209        O  0.29543157  0.40104842  0.54199598    -0.75400
O210        O  0.22965891  0.34075178  0.48906012    -0.81000
O211        O  0.31384982  0.39587673  0.48516470    -0.79200
O212        O  0.25853741  0.43355330  0.49996583    -1.15400
O213        O  0.34304429  0.98482121  0.47511373    -0.74600
C214        C  0.34518397  0.02268203  0.47618722     0.96200
C215        C  0.16530699  0.39417134  0.53791413     0.92600
Al216      Al  0.23702223  0.38657963  0.52980359     1.55600
O217        O  0.21688720  0.47320159  0.46950635    -0.79200
C218        C  0.31038893  0.38409416  0.51949894     0.96700
C219        C  0.25889785  0.46665223  0.57872395     0.91600
O220        O  0.28402226  0.49096780  0.55337308    -0.84500
O221        O  0.44926988  0.26606586  0.59841937    -0.84000
C222        C  0.12882171  0.36710004  0.56495742     0.95400
O223        O  0.09132135  0.33727972  0.55213625    -0.73100
O224        O  0.00305647  0.27708865  0.54278805    -0.76700
Al225      Al  0.04073004  0.33637986  0.57178852     1.49000
C226        C  0.99293225  0.23531536  0.55003619     0.90700
O227        O  0.03678229  0.23155458  0.64767174    -0.82900
O228        O  0.05229615  0.29826289  0.35344599    -0.76400
Al229      Al  0.49559013  0.25250829  0.62188540     1.90100
O230        O  0.10371838  0.28797470  0.63016333    -0.75500
O231        O  0.07416877  0.37596129  0.65314688    -0.75400
O232        O  0.13442738  0.37047307  0.60016861    -0.81000
O233        O  0.07928319  0.39956292  0.59632461    -0.79200
O234        O  0.04164376  0.30657074  0.61108710    -1.15400
O235        O  0.49033445  0.33980146  0.58629007    -0.74600
C236        C  0.45249871  0.30406620  0.58730207     0.96200
C237        C  0.08105349  0.25271398  0.64900791     0.92600
Al238      Al  0.08861460  0.33200052  0.64091603     1.55600
O239        O  0.50206560  0.22530092  0.58060004    -0.79200
C240        C  0.09110412  0.40787473  0.63065292     0.96700
C241        C  0.00854046  0.27376584  0.35650031     0.91600
O242        O  0.48422321  0.27458992  0.33115386    -0.84500
O243        O  0.02997201  0.20510559  0.43175405    -0.84000
C244        C  0.35041840  0.10407578  0.39828670     0.95400
O245        O  0.38792045  0.13389262  0.38546549    -0.73100
O246        O  0.47618503  0.19408373  0.37612126    -0.76700
Al247      Al  0.43851094  0.13479304  0.40512142     1.49000
C248        C  0.48631008  0.23585731  0.38336984     0.90700
O249        O  0.44246305  0.23962240  0.48100411    -0.82900
O250        O  0.42694212  0.17291424  0.52011090    -0.76400
Al251      Al  0.48365277  0.21866431  0.45521921     1.90100
O252        O  0.37552651  0.18320840  0.46349023    -0.75500
O253        O  0.40506448  0.09521566  0.48647973    -0.75400
O254        O  0.34481179  0.10070655  0.43349781    -0.81000
O255        O  0.39995472  0.07161185  0.42965846    -0.79200
O256        O  0.43759690  0.16460386  0.44441890    -1.15400
O257        O  0.98890738  0.13137055  0.41962461    -0.74600
C258        C  0.02674365  0.16710588  0.42063646     0.96200
C259        C  0.39819180  0.21846714  0.48233701     0.92600
Al260      Al  0.39062414  0.13917836  0.47424602     1.55600
O261        O  0.47718126  0.24587359  0.41393463    -0.79200
C262        C  0.38812982  0.06330221  0.46398612     0.96700
C263        C  0.47069826  0.19740601  0.52316699     0.91600
O264        O  0.49501458  0.19657804  0.49782131    -0.84500
O265        O  0.27009849  0.30641940  0.87619712    -0.84000
C266        C  0.37109375  0.22782399  0.84273638     0.95400
O267        O  0.34121708  0.23543892  0.82993392    -0.73100
O268        O  0.28107216  0.26356887  0.82055370    -0.76700
Al269      Al  0.34035953  0.28518051  0.84953328     1.49000
C270        C  0.23930659  0.23195941  0.82782062     0.90700
O271        O  0.23561708  0.18442716  0.92546549    -0.82900
O272        O  0.30232791  0.23560922  0.96455961    -0.76400
Al273      Al  0.25654567  0.24655644  0.89967301     1.90100
O274        O  0.29203993  0.17387525  0.90797365    -0.75500
O275        O  0.37996705  0.29141831  0.93089094    -0.75400
O276        O  0.37451390  0.22563395  0.87794669    -0.81000
O277        O  0.40355365  0.30982334  0.87405862    -0.79200
O278        O  0.31058448  0.25452075  0.88885599    -1.15400
O279        O  0.34380170  0.33902281  0.86398101    -0.74600
C280        C  0.30808412  0.34115963  0.86505015     0.96200
C281        C  0.25676915  0.16129477  0.92679981     0.92600
Al282      Al  0.33604260  0.23300278  0.91869385     1.55600
O283        O  0.22929426  0.21286059  0.85840320    -0.79200
C284        C  0.41187357  0.30636938  0.90839763     0.96700
C285        C  0.27784462  0.25489271  0.96761730     0.91600
O286        O  0.27866040  0.28002513  0.94226360    -0.84500
O287        O  0.20915047  0.16476757  0.70952922    -0.84000
C288        C  0.10815151  0.24335795  0.67607399     0.95400
O289        O  0.13803153  0.23574806  0.66327154    -0.73100
O290        O  0.19817611  0.20761757  0.98722052    -0.76700
Al291      Al  0.13888837  0.18600489  0.68286715     1.49000
C292        C  0.23994163  0.23922694  0.99448714     0.90700
O293        O  0.24362727  0.28675802  0.75879986    -0.82900
O294        O  0.17691613  0.23556919  0.79789472    -0.76400
Al295      Al  0.22270252  0.22463041  0.73300604     1.90100
O296        O  0.18719869  0.29730367  0.74131301    -0.75500
O297        O  0.09927704  0.17975566  0.76422502    -0.75400
O298        O  0.10472778  0.24554330  0.71128438    -0.81000
O299        O  0.07569257  0.16135737  0.70739168    -0.79200
O300        O  0.16866186  0.21666238  0.72219096    -1.15400
O301        O  0.13544682  0.13216398  0.69731301    -0.74600
C302        C  0.17116425  0.13002742  0.69838228     0.96200
C303        C  0.22247126  0.30988642  0.76013720     0.92600
Al304      Al  0.14319985  0.23817455  0.75203058     1.55600
O305        O  0.24995238  0.25832819  0.69173560    -0.79200
C306        C  0.06737052  0.16480528  0.74173132     0.96700
C307        C  0.20140425  0.21629098  0.80095063     0.91600
O308        O  0.20059189  0.19116117  0.77559622    -0.84500
O309        O  0.16879672  0.44524091  0.65398536    -0.84000
C310        C  0.24738243  0.12482113  0.95384685     0.95400
O311        O  0.23973697  0.08732114  0.94103260    -0.73100
O312        O  0.21161941  0.99904786  0.93167045    -0.76700
Al313      Al  0.19001984  0.03673945  0.96064795     1.49000
C314        C  0.24323479  0.48888791  0.93893049     0.90700
O315        O  0.29079782  0.03272448  0.70323815    -0.82900
O316        O  0.23961956  0.04828994  0.74232878    -0.76400
Al317      Al  0.22866603  0.49154412  0.67744930     1.90100
O318        O  0.30134878  0.09970655  0.68575603    -0.75500
O319        O  0.18381469  0.07013818  0.70866169    -0.75400
O320        O  0.24958453  0.13042940  0.98905589    -0.81000
O321        O  0.16539030  0.07530586  0.98516460    -0.79200
O322        O  0.22069982  0.03762654  0.66663086    -1.15400
O323        O  0.13618930  0.48635774  0.97511449    -0.74600
C324        C  0.13404918  0.44849642  0.97618806     0.96200
C325        C  0.31393214  0.07700431  0.70457685     0.92600
Al326      Al  0.24222075  0.08460197  0.69646696     1.55600
O327        O  0.26234406  0.49797267  0.96950743    -0.79200
C328        C  0.16885701  0.08709210  0.68616497     0.96700
C329        C  0.22033860  0.00452940  0.74539054     0.91600
O330        O  0.19521155  0.48021465  0.72004038    -0.84500
O331        O  0.31043644  0.02593797  0.82065079    -0.84000
C332        C  0.23185684  0.34635909  0.78718434     0.95400
O333        O  0.23949708  0.38385735  0.77437011    -0.73100
O334        O  0.26761470  0.47213080  0.76500399    -0.76700
Al335      Al  0.28921543  0.43444003  0.79398201     1.49000
C336        C  0.23599910  0.48229054  0.77226365     0.90700
O337        O  0.18843740  0.43845113  0.86990569    -0.82900
O338        O  0.23962225  0.42289223  0.90899714    -0.76400
Al339      Al  0.25056741  0.47963389  0.84411558     1.90100
O340        O  0.17789248  0.37146948  0.85242851    -0.75500
O341        O  0.29543154  0.40104855  0.87532929    -0.75400
O342        O  0.22965898  0.34075179  0.82239345    -0.81000
O343        O  0.31384975  0.39587680  0.81849801    -0.79200
O344        O  0.25853739  0.43355334  0.83329912    -1.15400
O345        O  0.34304431  0.98482111  0.80844700    -0.74600
C346        C  0.34518397  0.02268194  0.80952052     0.96200
C347        C  0.16530700  0.39417136  0.87124740     0.92600
Al348      Al  0.23702225  0.38657968  0.86313690     1.55600
O349        O  0.21688733  0.47320169  0.80283971    -0.79200
C350        C  0.31038890  0.38409428  0.85283225     0.96700
C351        C  0.25889792  0.46665235  0.91205720     0.91600
O352        O  0.28402239  0.49096790  0.88670635    -0.84500
O353        O  0.44926978  0.26606591  0.93175264    -0.84000
C354        C  0.12882171  0.36710005  0.89829074     0.95400
O355        O  0.09132135  0.33727963  0.88546965    -0.73100
O356        O  0.00305654  0.27708879  0.87612137    -0.76700
Al357      Al  0.04073010  0.33637991  0.90512192     1.49000
C358        C  0.99293217  0.23531546  0.88336953     0.90700
O359        O  0.03678236  0.23155460  0.98100502    -0.82900
O360        O  0.05229617  0.29826290  0.68677931    -0.76400
Al361      Al  0.49559003  0.25250828  0.95521871     1.90100
O362        O  0.10371847  0.28797467  0.96349660    -0.75500
O363        O  0.07416875  0.37596117  0.98648022    -0.75400
O364        O  0.13442745  0.37047304  0.93350193    -0.81000
O365        O  0.07928320  0.39956288  0.92965798    -0.79200
O366        O  0.04164382  0.30657073  0.94442045    -1.15400
O367        O  0.49033442  0.33980155  0.91962357    -0.74600
C368        C  0.45249866  0.30406629  0.92063541     0.96200
C369        C  0.08105357  0.25271398  0.98234118     0.92600
Al370      Al  0.08861464  0.33200047  0.97424936     1.55600
O371        O  0.50206568  0.22530100  0.91393336    -0.79200
C372        C  0.09110404  0.40787464  0.96398628     0.96700
C373        C  0.00854048  0.27376584  0.68983358     0.91600
O374        O  0.48422322  0.27459000  0.66448712    -0.84500
O375        O  0.02997201  0.20510564  0.76508730    -0.84000
C376        C  0.35041848  0.10407574  0.73161998     0.95400
O377        O  0.38792051  0.13389260  0.71879878    -0.73100
O378        O  0.47618506  0.19408370  0.70945454    -0.76700
Al379      Al  0.43851097  0.13479301  0.73845474     1.49000
C380        C  0.48631005  0.23585727  0.71670309     0.90700
O381        O  0.44246301  0.23962235  0.81433740    -0.82900
O382        O  0.42694213  0.17291428  0.85344420    -0.76400
Al383      Al  0.48365278  0.21866432  0.78855251     1.90100
O384        O  0.37552642  0.18320841  0.79682353    -0.75500
O385        O  0.40506443  0.09521552  0.81981312    -0.75400
O386        O  0.34481181  0.10070657  0.76683109    -0.81000
O387        O  0.39995473  0.07161175  0.76299183    -0.79200
O388        O  0.43759693  0.16460383  0.77775222    -1.15400
O389        O  0.98890740  0.13137057  0.75295787    -0.74600
C390        C  0.02674367  0.16710592  0.75396976     0.96200
C391        C  0.39819175  0.21846713  0.81567031     0.92600
Al392      Al  0.39062412  0.13917833  0.80757933     1.55600
O393        O  0.47718128  0.24587358  0.74726788    -0.79200
C394        C  0.38812982  0.06330207  0.79731947     0.96700
C395        C  0.47069828  0.19740604  0.85650033     0.91600
O396        O  0.49501465  0.19657814  0.83115467    -0.84500
O397        O  0.27009854  0.80641942  0.20953047    -0.84000
C398        C  0.37109380  0.72782403  0.17606972     0.95400
O399        O  0.34121712  0.73543893  0.16326726    -0.73100
O400        O  0.28107214  0.76356883  0.15388705    -0.76700
Al401      Al  0.34035954  0.78518049  0.18286663     1.49000
C402        C  0.23930656  0.73195945  0.16115403     0.90700
O403        O  0.23561713  0.68442717  0.25879880    -0.82900
O404        O  0.30232791  0.73560917  0.29789300    -0.76400
Al405      Al  0.25654571  0.74655646  0.23300639     1.90100
O406        O  0.29203997  0.67387526  0.24130690    -0.75500
O407        O  0.37996703  0.79141835  0.26422428    -0.75400
O408        O  0.37451394  0.72563396  0.21128003    -0.81000
O409        O  0.40355364  0.80982333  0.20739196    -0.79200
O410        O  0.31058450  0.75452076  0.22218936    -1.15400
O411        O  0.34380173  0.83902281  0.19731433    -0.74600
C412        C  0.30808415  0.84115964  0.19838349     0.96200
C413        C  0.25676918  0.66129476  0.26013307     0.92600
Al414      Al  0.33604262  0.73300278  0.25202720     1.55600
O415        O  0.22929431  0.71286062  0.19173661    -0.79200
C416        C  0.41187356  0.80636937  0.24173097     0.96700
C417        C  0.27784467  0.75489270  0.30095069     0.91600
O418        O  0.27866046  0.78002515  0.27559701    -0.84500
O419        O  0.20915046  0.66476754  0.04286268    -0.84000
C420        C  0.10815151  0.74335793  0.00940728     0.95400
O421        O  0.13803156  0.73574807  0.99660489    -0.73100
O422        O  0.19817614  0.70761761  0.32055382    -0.76700
Al423      Al  0.13888838  0.68600491  0.01620046     1.49000
C424        C  0.23994167  0.73922694  0.32782049     0.90700
O425        O  0.24362727  0.78675799  0.09213321    -0.82900
O426        O  0.17691602  0.73556918  0.13122812    -0.76400
Al427      Al  0.22270251  0.72463039  0.06633943     1.90100
O428        O  0.18719874  0.79730367  0.07464629    -0.75500
O429        O  0.09927699  0.67975572  0.09755834    -0.75400
O430        O  0.10472777  0.74554332  0.04461766    -0.81000
O431        O  0.07569257  0.66135733  0.04072500    -0.79200
O432        O  0.16866186  0.71666235  0.05552429    -1.15400
O433        O  0.13544686  0.63216403  0.03064623    -0.74600
C434        C  0.17116424  0.63002745  0.03171559     0.96200
C435        C  0.22247126  0.80988637  0.09347056     0.92600
Al436      Al  0.14319984  0.73817457  0.08536387     1.55600
O437        O  0.24995240  0.75832812  0.02506893    -0.79200
C438        C  0.06737051  0.66480530  0.07506463     0.96700
C439        C  0.20140416  0.71629100  0.13428407     0.91600
O440        O  0.20059183  0.69116119  0.10892967    -0.84500
O441        O  0.16879669  0.94524090  0.98731862    -0.84000
C442        C  0.24738245  0.62482111  0.28718009     0.95400
O443        O  0.23973699  0.58732111  0.27436586    -0.73100
O444        O  0.21161936  0.49904777  0.26500383    -0.76700
Al445      Al  0.19001983  0.53673941  0.29398127     1.49000
C446        C  0.24323478  0.98888786  0.27226388     0.90700
O447        O  0.29079774  0.53272447  0.03657140    -0.82900
O448        O  0.23961950  0.54828989  0.07566205    -0.76400
Al449      Al  0.22866595  0.99154409  0.01078256     1.90100
O450        O  0.30134871  0.59970653  0.01908930    -0.75500
O451        O  0.18381454  0.57013812  0.04199497    -0.75400
O452        O  0.24958453  0.63042937  0.32238914    -0.81000
O453        O  0.16539029  0.57530588  0.31849793    -0.79200
O454        O  0.22069971  0.53762651  0.99996415    -1.15400
O455        O  0.13618937  0.98635776  0.30844781    -0.74600
C456        C  0.13404920  0.94849642  0.30952143     0.96200
C457        C  0.31393205  0.57700430  0.03791014     0.92600
Al458      Al  0.24222065  0.58460193  0.02980024     1.55600
O459        O  0.26234417  0.99797271  0.30284078    -0.79200
C460        C  0.16885694  0.58709211  0.01949827     0.96700
C461        C  0.22033852  0.50452935  0.07872386     0.91600
O462        O  0.19521153  0.98021463  0.05337368    -0.84500
O463        O  0.31043644  0.52593796  0.15398423    -0.84000
C464        C  0.23185684  0.84635907  0.12051766     0.95400
O465        O  0.23949710  0.88385731  0.10770340    -0.73100
O466        O  0.26761465  0.97213078  0.09833734    -0.76700
Al467      Al  0.28921543  0.93444001  0.12731529     1.49000
C468        C  0.23599909  0.98229058  0.10559700     0.90700
O469        O  0.18843735  0.93845112  0.20323895    -0.82900
O470        O  0.23962223  0.92289222  0.24233045    -0.76400
Al471      Al  0.25056735  0.97963386  0.17744890     1.90100
O472        O  0.17789248  0.87146944  0.18576190    -0.75500
O473        O  0.29543158  0.90104856  0.20866261    -0.75400
O474        O  0.22965901  0.84075181  0.15572679    -0.81000
O475        O  0.31384977  0.89587679  0.15183132    -0.79200
O476        O  0.25853739  0.93355332  0.16663242    -1.15400
O477        O  0.34304428  0.48482114  0.14178023    -0.74600
C478        C  0.34518394  0.52268195  0.14285387     0.96200
C479        C  0.16530698  0.89417135  0.20458074     0.92600
Al480      Al  0.23702228  0.88657969  0.19647023     1.55600
O481        O  0.21688731  0.97320172  0.13617307    -0.79200
C482        C  0.31038894  0.88409428  0.18616557     0.96700
C483        C  0.25889783  0.96665234  0.24539052     0.91600
O484        O  0.28402222  0.99096792  0.22003966    -0.84500
O485        O  0.44926980  0.76606594  0.26508605    -0.84000
C486        C  0.12882171  0.86710007  0.23162411     0.95400
O487        O  0.09132138  0.83727962  0.21880301    -0.73100
O488        O  0.00305655  0.77708880  0.20945471    -0.76700
Al489      Al  0.04073012  0.83637991  0.23845524     1.49000
C490        C  0.99293220  0.73531547  0.21670282     0.90700
O491        O  0.03678232  0.73155460  0.31433829    -0.82900
O492        O  0.05229620  0.79826291  0.02011264    -0.76400
Al493      Al  0.49559007  0.75250829  0.28855203     1.90100
O494        O  0.10371840  0.78797466  0.29682986    -0.75500
O495        O  0.07416873  0.87596118  0.31981362    -0.75400
O496        O  0.13442742  0.87047304  0.26683530    -0.81000
O497        O  0.07928323  0.89956287  0.26299135    -0.79200
O498        O  0.04164379  0.80657074  0.27775379    -1.15400
O499        O  0.49033444  0.83980154  0.25295680    -0.74600
C500        C  0.45249866  0.80406627  0.25396874     0.96200
C501        C  0.08105353  0.75271397  0.31567444     0.92600
Al502      Al  0.08861460  0.83200045  0.30758271     1.55600
O503        O  0.50206572  0.72530103  0.24726663    -0.79200
C504        C  0.09110404  0.90787464  0.29731966     0.96700
C505        C  0.00854050  0.77376584  0.02316695     0.91600
O506        O  0.48422318  0.77458992  0.99782047    -0.84500
O507        O  0.02997202  0.70510559  0.09842075    -0.84000
C508        C  0.35041835  0.60407572  0.06495335     0.95400
O509        O  0.38792036  0.63389268  0.05213218    -0.73100
O510        O  0.47618503  0.69408375  0.04278797    -0.76700
Al511      Al  0.43851085  0.63479304  0.07178807     1.49000
C512        C  0.48631004  0.73585731  0.05003652     0.90700
O513        O  0.44246302  0.73962236  0.14767072    -0.82900
O514        O  0.42694213  0.67291430  0.18677752    -0.76400
Al515      Al  0.48365273  0.71866430  0.12188587     1.90100
O516        O  0.37552636  0.68320838  0.13015695    -0.75500
O517        O  0.40506425  0.59521555  0.15314640    -0.75400
O518        O  0.34481166  0.60070652  0.10016445    -0.81000
O519        O  0.39995464  0.57161175  0.09632512    -0.79200
O520        O  0.43759681  0.66460382  0.11108557    -1.15400
O521        O  0.98890740  0.63137057  0.08629109    -0.74600
C522        C  0.02674366  0.66710592  0.08730306     0.96200
C523        C  0.39819177  0.71846715  0.14900366     0.92600
Al524      Al  0.39062400  0.63917832  0.14091269     1.55600
O525        O  0.47718116  0.74587358  0.08060130    -0.79200
C526        C  0.38812971  0.56330210  0.13065277     0.96700
C527        C  0.47069829  0.69740609  0.18983361     0.91600
O528        O  0.49501464  0.69657810  0.16448797    -0.84500
O529        O  0.27009847  0.80641938  0.54286383    -0.84000
C530        C  0.37109377  0.72782400  0.50940307     0.95400
O531        O  0.34121708  0.73543892  0.49660065    -0.73100
O532        O  0.28107218  0.76356885  0.48722045    -0.76700
Al533      Al  0.34035955  0.78518050  0.51620003     1.49000
C534        C  0.23930661  0.73195936  0.49448734     0.90700
O535        O  0.23561708  0.68442717  0.59213226    -0.82900
O536        O  0.30232789  0.73560929  0.63122634    -0.76400
Al537      Al  0.25654566  0.74655640  0.56633972     1.90100
O538        O  0.29203988  0.67387531  0.57464024    -0.75500
O539        O  0.37996703  0.79141834  0.59755767    -0.75400
O540        O  0.37451390  0.72563388  0.54461337    -0.81000
O541        O  0.40355365  0.80982331  0.54072534    -0.79200
O542        O  0.31058451  0.75452077  0.55552274    -1.15400
O543        O  0.34380169  0.83902280  0.53064776    -0.74600
C544        C  0.30808410  0.84115961  0.53171685     0.96200
C545        C  0.25676917  0.66129481  0.59346651     0.92600
Al546      Al  0.33604259  0.73300278  0.58536057     1.55600
O547        O  0.22929434  0.71286042  0.52506988    -0.79200
C548        C  0.41187352  0.80636924  0.57506435     0.96700
C549        C  0.27784464  0.75489283  0.63428403     0.91600
O550        O  0.27866034  0.78002518  0.60893030    -0.84500
O551        O  0.20915045  0.66476747  0.37619596    -0.84000
C552        C  0.10815156  0.74335798  0.34274056     0.95400
O553        O  0.13803165  0.73574817  0.32993815    -0.73100
O554        O  0.19817615  0.70761761  0.65388721    -0.76700
Al555      Al  0.13888839  0.68600494  0.34953376     1.49000
C556        C  0.23994163  0.73922706  0.66115382     0.90700
O557        O  0.24362716  0.78675796  0.42546661    -0.82900
O558        O  0.17691608  0.73556918  0.46456144    -0.76400
Al559      Al  0.22270250  0.72463034  0.39967275     1.90100
O560        O  0.18719870  0.79730371  0.40797957    -0.75500
O561        O  0.09927704  0.67975572  0.43089162    -0.75400
O562        O  0.10472780  0.74554332  0.37795094    -0.81000
O563        O  0.07569254  0.66135731  0.37405829    -0.79200
O564        O  0.16866187  0.71666237  0.38885759    -1.15400
O565        O  0.13544683  0.63216408  0.36397968    -0.74600
C566        C  0.17116420  0.63002740  0.36504897     0.96200
C567        C  0.22247120  0.80988643  0.42680387     0.92600
Al568      Al  0.14319984  0.73817457  0.41869717     1.55600
O569        O  0.24995245  0.75832806  0.35840228    -0.79200
C570        C  0.06737051  0.66480527  0.40839792     0.96700
C571        C  0.20140423  0.71629099  0.46761735     0.91600
O572        O  0.20059186  0.69116118  0.44226294    -0.84500
O573        O  0.16879662  0.94524083  0.32065192    -0.84000
C574        C  0.24738252  0.62482116  0.62051350     0.95400
O575        O  0.23973691  0.58732115  0.60769916    -0.73100
O576        O  0.21161943  0.49904788  0.59833721    -0.76700
Al577      Al  0.19001990  0.53673948  0.62731467     1.49000
C578        C  0.24323475  0.98888773  0.60559726     0.90700
O579        O  0.29079772  0.53272451  0.36990481    -0.82900
O580        O  0.23961943  0.54828992  0.40899535    -0.76400
Al581      Al  0.22866593  0.99154406  0.34411590     1.90100
O582        O  0.30134884  0.59970662  0.35242261    -0.75500
O583        O  0.18381461  0.57013817  0.37532828    -0.75400
O584        O  0.24958464  0.63042936  0.65572255    -0.81000
O585        O  0.16539043  0.57530595  0.65183130    -0.79200
O586        O  0.22069980  0.53762655  0.33329745    -1.15400
O587        O  0.13618939  0.98635775  0.64178127    -0.74600
C588        C  0.13404926  0.94849642  0.64285474     0.96200
C589        C  0.31393206  0.57700432  0.37124354     0.92600
Al590      Al  0.24222070  0.58460201  0.36313351     1.55600
O591        O  0.26234409  0.99797252  0.63617418    -0.79200
C592        C  0.16885685  0.58709205  0.35283160     0.96700
C593        C  0.22033854  0.50452938  0.41205713     0.91600
O594        O  0.19521141  0.98021465  0.38670697    -0.84500
O595        O  0.31043636  0.52593798  0.48731752    -0.84000
C596        C  0.23185674  0.84635914  0.45385101     0.95400
O597        O  0.23949705  0.88385743  0.44103680    -0.73100
O598        O  0.26761468  0.97213092  0.43167070    -0.76700
Al599      Al  0.28921545  0.93444009  0.46064871     1.49000
C600        C  0.23599899  0.98229053  0.43893031     0.90700
O601        O  0.18843733  0.93845108  0.53657241    -0.82900
O602        O  0.23962221  0.92289208  0.57566389    -0.76400
Al603      Al  0.25056731  0.97963378  0.51078230     1.90100
O604        O  0.17789249  0.87146947  0.51909524    -0.75500
O605        O  0.29543156  0.90104853  0.54199596    -0.75400
O606        O  0.22965890  0.84075183  0.48906012    -0.81000
O607        O  0.31384981  0.89587683  0.48516469    -0.79200
O608        O  0.25853739  0.93355330  0.49996583    -1.15400
O609        O  0.34304426  0.48482113  0.47511378    -0.74600
C610        C  0.34518389  0.52268194  0.47618723     0.96200
C611        C  0.16530698  0.89417133  0.53791412     0.92600
Al612      Al  0.23702224  0.88657964  0.52980361     1.55600
O613        O  0.21688715  0.97320155  0.46950636    -0.79200
C614        C  0.31038892  0.88409426  0.51949893     0.96700
C615        C  0.25889783  0.96665219  0.57872394     0.91600
O616        O  0.28402224  0.99096776  0.55337307    -0.84500
O617        O  0.44926979  0.76606578  0.59841937    -0.84000
C618        C  0.12882168  0.86710005  0.56495740     0.95400
O619        O  0.09132132  0.83727973  0.55213626    -0.73100
O620        O  0.00305652  0.77708866  0.54278800    -0.76700
Al621      Al  0.04073000  0.83637982  0.57178852     1.49000
C622        C  0.99293223  0.73531537  0.55003619     0.90700
O623        O  0.03678224  0.73155454  0.64767176    -0.82900
O624        O  0.05229611  0.79826282  0.35344601    -0.76400
Al625      Al  0.49559014  0.75250829  0.62188539     1.90100
O626        O  0.10371831  0.78797465  0.63016335    -0.75500
O627        O  0.07416867  0.87596123  0.65314688    -0.75400
O628        O  0.13442740  0.87047303  0.60016860    -0.81000
O629        O  0.07928307  0.89956282  0.59632461    -0.79200
O630        O  0.04164375  0.80657074  0.61108710    -1.15400
O631        O  0.49033434  0.83980136  0.58629006    -0.74600
C632        C  0.45249861  0.80406611  0.58730206     0.96200
C633        C  0.08105343  0.75271392  0.64900793     0.92600
Al634      Al  0.08861457  0.83200050  0.64091603     1.55600
O635        O  0.50206585  0.72530107  0.58060001    -0.79200
C636        C  0.09110404  0.90787464  0.63065289     0.96700
C637        C  0.00854043  0.77376580  0.35650030     0.91600
O638        O  0.48422310  0.77458988  0.33115385    -0.84500
O639        O  0.02997208  0.70510565  0.43175403    -0.84000
C640        C  0.35041838  0.60407566  0.39828670     0.95400
O641        O  0.38792040  0.63389254  0.38546550    -0.73100
O642        O  0.47618510  0.69408377  0.37612131    -0.76700
Al643      Al  0.43851091  0.63479302  0.40512144     1.49000
C644        C  0.48631003  0.73585733  0.38336984     0.90700
O645        O  0.44246306  0.73962234  0.48100414    -0.82900
O646        O  0.42694211  0.67291420  0.52011090    -0.76400
Al647      Al  0.48365275  0.71866431  0.45521922     1.90100
O648        O  0.37552647  0.68320844  0.46349021    -0.75500
O649        O  0.40506433  0.59521555  0.48647973    -0.75400
O650        O  0.34481170  0.60070646  0.43349780    -0.81000
O651        O  0.39995461  0.57161175  0.42965846    -0.79200
O652        O  0.43759685  0.66460383  0.44441889    -1.15400
O653        O  0.98890742  0.63137061  0.41962461    -0.74600
C654        C  0.02674371  0.66710596  0.42063643     0.96200
C655        C  0.39819181  0.71846717  0.48233698     0.92600
Al656      Al  0.39062406  0.63917831  0.47424602     1.55600
O657        O  0.47718122  0.74587366  0.41393463    -0.79200
C658        C  0.38812970  0.56330209  0.46398611     0.96700
C659        C  0.47069827  0.69740593  0.52316701     0.91600
O660        O  0.49501457  0.69657795  0.49782130    -0.84500
O661        O  0.27009849  0.80641935  0.87619707    -0.84000
C662        C  0.37109373  0.72782394  0.84273641     0.95400
O663        O  0.34121719  0.73543902  0.82993394    -0.73100
O664        O  0.28107224  0.76356874  0.82055375    -0.76700
Al665      Al  0.34035963  0.78518054  0.84953334     1.49000
C666        C  0.23930663  0.73195932  0.82782064     0.90700
O667        O  0.23561706  0.68442714  0.92546553    -0.82900
O668        O  0.30232795  0.73560937  0.96455961    -0.76400
Al669      Al  0.25654565  0.74655642  0.89967302     1.90100
O670        O  0.29203990  0.67387525  0.90797366    -0.75500
O671        O  0.37996705  0.79141829  0.93089092    -0.75400
O672        O  0.37451382  0.72563386  0.87794672    -0.81000
O673        O  0.40355379  0.80982340  0.87405867    -0.79200
O674        O  0.31058451  0.75452078  0.88885602    -1.15400
O675        O  0.34380174  0.83902282  0.86398107    -0.74600
C676        C  0.30808414  0.84115959  0.86505013     0.96200
C677        C  0.25676915  0.66129477  0.92679986     0.92600
Al678      Al  0.33604258  0.73300280  0.91869386     1.55600
O679        O  0.22929422  0.71286050  0.85840321    -0.79200
C680        C  0.41187361  0.80636928  0.90839766     0.96700
C681        C  0.27784466  0.75489286  0.96761729     0.91600
O682        O  0.27866040  0.78002524  0.94226358    -0.84500
O683        O  0.20915050  0.66476758  0.70952921    -0.84000
C684        C  0.10815151  0.74335790  0.67607398     0.95400
O685        O  0.13803158  0.73574813  0.66327153    -0.73100
O686        O  0.19817614  0.70761759  0.98722050    -0.76700
Al687      Al  0.13888836  0.68600491  0.68286714     1.49000
C688        C  0.23994164  0.73922702  0.99448712     0.90700
O689        O  0.24362718  0.78675799  0.75879987    -0.82900
O690        O  0.17691620  0.73556921  0.79789469    -0.76400
Al691      Al  0.22270252  0.72463039  0.73300604     1.90100
O692        O  0.18719872  0.79730375  0.74131286    -0.75500
O693        O  0.09927701  0.67975562  0.76422503    -0.75400
O694        O  0.10472776  0.74554320  0.71128438    -0.81000
O695        O  0.07569252  0.66135730  0.70739167    -0.79200
O696        O  0.16866183  0.71666231  0.72219097    -1.15400
O697        O  0.13544684  0.63216406  0.69731299    -0.74600
C698        C  0.17116427  0.63002748  0.69838225     0.96200
C699        C  0.22247124  0.80988648  0.76013712     0.92600
Al700      Al  0.14319986  0.73817453  0.75203054     1.55600
O701        O  0.24995236  0.75832825  0.69173559    -0.79200
C702        C  0.06737049  0.66480520  0.74173133     0.96700
C703        C  0.20140430  0.71629096  0.80095062     0.91600
O704        O  0.20059193  0.69116111  0.77559623    -0.84500
O705        O  0.16879663  0.94524082  0.65398537    -0.84000
C706        C  0.24738243  0.62482112  0.95384688     0.95400
O707        O  0.23973691  0.58732113  0.94103259    -0.73100
O708        O  0.21161936  0.49904794  0.93167043    -0.76700
Al709      Al  0.19001976  0.53673944  0.96064795     1.49000
C710        C  0.24323480  0.98888779  0.93893051     0.90700
O711        O  0.29079783  0.53272462  0.70323814    -0.82900
O712        O  0.23961946  0.54828990  0.74232877    -0.76400
Al713      Al  0.22866594  0.99154403  0.67744932     1.90100
O714        O  0.30134881  0.59970674  0.68575608    -0.75500
O715        O  0.18381469  0.57013827  0.70866169    -0.75400
O716        O  0.24958457  0.63042934  0.98905591    -0.81000
O717        O  0.16539025  0.57530587  0.98516461    -0.79200
O718        O  0.22069992  0.53762664  0.66663086    -1.15400
O719        O  0.13618944  0.98635781  0.97511451    -0.74600
C720        C  0.13404931  0.94849649  0.97618803     0.96200
C721        C  0.31393212  0.57700444  0.70457687     0.92600
Al722      Al  0.24222075  0.58460206  0.69646696     1.55600
O723        O  0.26234415  0.99797264  0.96950743    -0.79200
C724        C  0.16885697  0.58709215  0.68616494     0.96700
C725        C  0.22033859  0.50452935  0.74539053     0.91600
O726        O  0.19521150  0.98021474  0.72004039    -0.84500
O727        O  0.31043648  0.52593806  0.82065078    -0.84000
C728        C  0.23185680  0.84635912  0.78718432     0.95400
O729        O  0.23949715  0.88385744  0.77437014    -0.73100
O730        O  0.26761478  0.97213093  0.76500402    -0.76700
Al731      Al  0.28921552  0.93444008  0.79398202     1.49000
C732        C  0.23599907  0.98229054  0.77226365     0.90700
O733        O  0.18843732  0.93845109  0.86990570    -0.82900
O734        O  0.23962214  0.92289210  0.90899713    -0.76400
Al735      Al  0.25056733  0.97963379  0.84411558     1.90100
O736        O  0.17789246  0.87146951  0.85242843    -0.75500
O737        O  0.29543141  0.90104838  0.87532929    -0.75400
O738        O  0.22965893  0.84075176  0.82239341    -0.81000
O739        O  0.31384991  0.89587689  0.81849803    -0.79200
O740        O  0.25853744  0.93355330  0.83329913    -1.15400
O741        O  0.34304428  0.48482116  0.80844698    -0.74600
C742        C  0.34518399  0.52268201  0.80952051     0.96200
C743        C  0.16530696  0.89417133  0.87124739     0.92600
Al744      Al  0.23702218  0.88657960  0.86313687     1.55600
O745        O  0.21688721  0.97320154  0.80283967    -0.79200
C746        C  0.31038891  0.88409423  0.85283226     0.96700
C747        C  0.25889784  0.96665222  0.91205721     0.91600
O748        O  0.28402227  0.99096779  0.88670634    -0.84500
O749        O  0.44926985  0.76606581  0.93175266    -0.84000
C750        C  0.12882172  0.86710005  0.89829075     0.95400
O751        O  0.09132133  0.83727969  0.88546965    -0.73100
O752        O  0.00305647  0.77708866  0.87612140    -0.76700
Al753      Al  0.04073004  0.83637986  0.90512193     1.49000
C754        C  0.99293221  0.73531535  0.88336954     0.90700
O755        O  0.03678232  0.73155459  0.98100500    -0.82900
O756        O  0.05229615  0.79826293  0.68677930    -0.76400
Al757      Al  0.49559012  0.75250827  0.95521871     1.90100
O758        O  0.10371843  0.78797475  0.96349665    -0.75500
O759        O  0.07416878  0.87596132  0.98648025    -0.75400
O760        O  0.13442746  0.87047315  0.93350193    -0.81000
O761        O  0.07928317  0.89956290  0.92965797    -0.79200
O762        O  0.04164380  0.80657076  0.94442047    -1.15400
O763        O  0.49033443  0.83980146  0.91962358    -0.74600
C764        C  0.45249870  0.80406618  0.92063545     0.96200
C765        C  0.08105351  0.75271398  0.98234117     0.92600
Al766      Al  0.08861465  0.83200057  0.97424939     1.55600
O767        O  0.50206563  0.72530093  0.91393335    -0.79200
C768        C  0.09110411  0.90787473  0.96398626     0.96700
C769        C  0.00854046  0.77376587  0.68983360     0.91600
O770        O  0.48422317  0.77458997  0.66448714    -0.84500
O771        O  0.02997199  0.70510556  0.76508733    -0.84000
C772        C  0.35041846  0.60407576  0.73161999     0.95400
O773        O  0.38792048  0.63389262  0.71879878    -0.73100
O774        O  0.47618502  0.69408371  0.70945452    -0.76700
Al775      Al  0.43851095  0.63479303  0.73845473     1.49000
C776        C  0.48631004  0.73585728  0.71670309     0.90700
O777        O  0.44246306  0.73962239  0.81433741    -0.82900
O778        O  0.42694211  0.67291423  0.85344420    -0.76400
Al779      Al  0.48365278  0.71866429  0.78855251     1.90100
O780        O  0.37552652  0.68320840  0.79682353    -0.75500
O781        O  0.40506443  0.59521562  0.81981313    -0.75400
O782        O  0.34481181  0.60070653  0.76683109    -0.81000
O783        O  0.39995476  0.57161187  0.76299184    -0.79200
O784        O  0.43759693  0.66460384  0.77775222    -1.15400
O785        O  0.98890734  0.63137054  0.75295785    -0.74600
C786        C  0.02674362  0.66710584  0.75396976     0.96200
C787        C  0.39819180  0.71846710  0.81567034     0.92600
Al788      Al  0.39062414  0.63917834  0.80757933     1.55600
O789        O  0.47718125  0.74587355  0.74726790    -0.79200
C790        C  0.38812985  0.56330218  0.79731948     0.96700
C791        C  0.47069825  0.69740601  0.85650031     0.91600
O792        O  0.49501462  0.69657805  0.83115467    -0.84500
O793        O  0.77009849  0.30641943  0.20953045    -0.84000
C794        C  0.87109378  0.22782402  0.17606972     0.95400
O795        O  0.84121714  0.23543897  0.16326724    -0.73100
O796        O  0.78107213  0.26356884  0.15388711    -0.76700
Al797      Al  0.84035951  0.28518051  0.18286665     1.49000
C798        C  0.73930658  0.23195936  0.16115403     0.90700
O799        O  0.73561708  0.18442720  0.25879883    -0.82900
O800        O  0.80232790  0.23560929  0.29789300    -0.76400
Al801      Al  0.75654565  0.24655644  0.23300639     1.90100
O802        O  0.79203991  0.17387532  0.24130692    -0.75500
O803        O  0.87996708  0.29141836  0.26422430    -0.75400
O804        O  0.87451381  0.22563387  0.21128004    -0.81000
O805        O  0.90355361  0.30982333  0.20739195    -0.79200
O806        O  0.81058448  0.25452079  0.22218938    -1.15400
O807        O  0.84380169  0.33902282  0.19731434    -0.74600
C808        C  0.80808411  0.34115965  0.19838350     0.96200
C809        C  0.75676913  0.16129480  0.26013309     0.92600
Al810      Al  0.83604258  0.23300280  0.25202722     1.55600
O811        O  0.72929427  0.21286049  0.19173660    -0.79200
C812        C  0.91187354  0.30636926  0.24173095     0.96700
C813        C  0.77784465  0.25489282  0.30095068     0.91600
O814        O  0.77866039  0.28002520  0.27559698    -0.84500
O815        O  0.70915037  0.16476746  0.04286268    -0.84000
C816        C  0.60815146  0.24335797  0.00940731     0.95400
O817        O  0.63803150  0.23574810  0.99660490    -0.73100
O818        O  0.69817616  0.20761767  0.32055383    -0.76700
Al819      Al  0.63888831  0.18600487  0.01620045     1.49000
C820        C  0.73994166  0.23922706  0.32782049     0.90700
O821        O  0.74362718  0.28675796  0.09213320    -0.82900
O822        O  0.67691616  0.23556921  0.13122812    -0.76400
Al823      Al  0.72270246  0.22463035  0.06633941     1.90100
O824        O  0.68719868  0.29730372  0.07464630    -0.75500
O825        O  0.59927708  0.17975572  0.09755831    -0.75400
O826        O  0.60472771  0.24554332  0.04461769    -0.81000
O827        O  0.57569253  0.16135725  0.04072500    -0.79200
O828        O  0.66866180  0.21666232  0.05552429    -1.15400
O829        O  0.63544678  0.13216399  0.03064621    -0.74600
C830        C  0.67116417  0.13002738  0.03171558     0.96200
C831        C  0.72247122  0.30988642  0.09347054     0.92600
Al832      Al  0.64319984  0.23817457  0.08536388     1.55600
O833        O  0.74995231  0.25832812  0.02506891    -0.79200
C834        C  0.56737054  0.16480529  0.07506463     0.96700
C835        C  0.70140427  0.21629099  0.13428406     0.91600
O836        O  0.70059195  0.19116120  0.10892965    -0.84500
O837        O  0.66879666  0.44524080  0.98731862    -0.84000
C838        C  0.74738240  0.12482115  0.28718009     0.95400
O839        O  0.73973694  0.08732117  0.27436583    -0.73100
O840        O  0.71161942  0.99904793  0.26500382    -0.76700
Al841      Al  0.69001982  0.03673946  0.29398125     1.49000
C842        C  0.74323479  0.48888773  0.27226387     0.90700
O843        O  0.79079777  0.03272453  0.03657139    -0.82900
O844        O  0.73961951  0.04828990  0.07566204    -0.76400
Al845      Al  0.72866595  0.49154402  0.01078257     1.90100
O846        O  0.80134882  0.09970666  0.01908932    -0.75500
O847        O  0.68381469  0.07013821  0.04199497    -0.75400
O848        O  0.74958446  0.13042937  0.32238913    -0.81000
O849        O  0.66539028  0.07530595  0.31849793    -0.79200
O850        O  0.72069986  0.03762659  0.99996413    -1.15400
O851        O  0.63618935  0.48635776  0.30844779    -0.74600
C852        C  0.63404918  0.44849642  0.30952140     0.96200
C853        C  0.81393211  0.07700436  0.03791014     0.92600
Al854      Al  0.74222076  0.08460202  0.02980023     1.55600
O855        O  0.76234416  0.49797258  0.30284078    -0.79200
C856        C  0.66885695  0.08709207  0.01949827     0.96700
C857        C  0.72033855  0.00452936  0.07872385     0.91600
O858        O  0.69521149  0.48021464  0.05337368    -0.84500
O859        O  0.81043650  0.02593802  0.15398421    -0.84000
C860        C  0.73185685  0.34635915  0.12051764     0.95400
O861        O  0.73949711  0.38385740  0.10770340    -0.73100
O862        O  0.76761470  0.47213089  0.09833736    -0.76700
Al863      Al  0.78921546  0.43444007  0.12731530     1.49000
C864        C  0.73599902  0.48229051  0.10559700     0.90700
O865        O  0.68843733  0.43845109  0.20323896    -0.82900
O866        O  0.73962214  0.42289208  0.24233044    -0.76400
Al867      Al  0.75056729  0.47963377  0.17744891     1.90100
O868        O  0.67789247  0.37146943  0.18576186    -0.75500
O869        O  0.79543154  0.40104857  0.20866259    -0.75400
O870        O  0.72965901  0.34075187  0.15572676    -0.81000
O871        O  0.81384986  0.39587687  0.15183133    -0.79200
O872        O  0.75853735  0.43355329  0.16663242    -1.15400
O873        O  0.84304427  0.98482111  0.14178023    -0.74600
C874        C  0.84518398  0.02268196  0.14285386     0.96200
C875        C  0.66530697  0.39417132  0.20458070     0.92600
Al876      Al  0.73702223  0.38657965  0.19647020     1.55600
O877        O  0.71688716  0.47320151  0.13617304    -0.79200
C878        C  0.81038897  0.38409431  0.18616556     0.96700
C879        C  0.75889785  0.46665219  0.24539053     0.91600
O880        O  0.78402225  0.49096775  0.22003966    -0.84500
O881        O  0.94926972  0.26606575  0.26508606    -0.84000
C882        C  0.62882172  0.36710010  0.23162406     0.95400
O883        O  0.59132135  0.33727967  0.21880296    -0.73100
O884        O  0.50305646  0.27708866  0.20945474    -0.76700
Al885      Al  0.54073002  0.33637981  0.23845525     1.49000
C886        C  0.49293224  0.23531538  0.21670286     0.90700
O887        O  0.53678230  0.23155453  0.31433828    -0.82900
O888        O  0.55229609  0.29826284  0.02011263    -0.76400
Al889      Al  0.99559005  0.25250823  0.28855207     1.90100
O890        O  0.60371839  0.28797466  0.29682988    -0.75500
O891        O  0.57416874  0.37596123  0.31981364    -0.75400
O892        O  0.63442744  0.37047313  0.26683524    -0.81000
O893        O  0.57928310  0.39956279  0.26299135    -0.79200
O894        O  0.54164378  0.30657071  0.27775381    -1.15400
O895        O  0.99033434  0.33980134  0.25295681    -0.74600
C896        C  0.95249860  0.30406609  0.25396869     0.96200
C897        C  0.58105349  0.25271390  0.31567442     0.92600
Al898      Al  0.58861465  0.33200050  0.30758271     1.55600
O899        O  0.00206571  0.22530100  0.24726668    -0.79200
C900        C  0.59110398  0.40787465  0.29731965     0.96700
C901        C  0.50854040  0.27376584  0.02316696     0.91600
O902        O  0.98422310  0.27458985  0.99782046    -0.84500
O903        O  0.52997207  0.20510563  0.09842075    -0.84000
C904        C  0.85041839  0.10407566  0.06495335     0.95400
O905        O  0.88792044  0.13389254  0.05213219    -0.73100
O906        O  0.97618504  0.19408380  0.04278797    -0.76700
Al907      Al  0.93851097  0.13479304  0.07178807     1.49000
C908        C  0.98631005  0.23585736  0.05003653     0.90700
O909        O  0.94246310  0.23962242  0.14767075    -0.82900
O910        O  0.92694208  0.17291421  0.18677753    -0.76400
Al911      Al  0.98365284  0.21866433  0.12188591     1.90100
O912        O  0.87552652  0.18320839  0.13015694    -0.75500
O913        O  0.90506443  0.09521556  0.15314640    -0.75400
O914        O  0.84481168  0.10070646  0.10016444    -0.81000
O915        O  0.89995473  0.07161179  0.09632512    -0.79200
O916        O  0.93759694  0.16460383  0.11108557    -1.15400
O917        O  0.48890743  0.13137063  0.08629109    -0.74600
C918        C  0.52674371  0.16710595  0.08730308     0.96200
C919        C  0.89819185  0.21846716  0.14900367     0.92600
Al920      Al  0.89062411  0.13917830  0.14091268     1.55600
O921        O  0.97718141  0.24587373  0.08060136    -0.79200
C922        C  0.88812981  0.06330212  0.13065277     0.96700
C923        C  0.97069822  0.19740597  0.18983365     0.91600
O924        O  0.99501456  0.19657797  0.16448801    -0.84500
O925        O  0.77009849  0.30641933  0.54286383    -0.84000
C926        C  0.87109376  0.22782396  0.50940308     0.95400
O927        O  0.84121705  0.23543882  0.49660064    -0.73100
O928        O  0.78107211  0.26356876  0.48722041    -0.76700
Al929      Al  0.84035953  0.28518047  0.51619998     1.49000
C930        C  0.73930653  0.23195933  0.49448734     0.90700
O931        O  0.73561715  0.18442717  0.59213227    -0.82900
O932        O  0.80232800  0.23560936  0.63122633    -0.76400
Al933      Al  0.75654570  0.24655643  0.56633975     1.90100
O934        O  0.79203993  0.17387526  0.57464028    -0.75500
O935        O  0.87996704  0.29141834  0.59755759    -0.75400
O936        O  0.87451395  0.22563394  0.54461338    -0.81000
O937        O  0.90355367  0.30982338  0.54072528    -0.79200
O938        O  0.81058453  0.25452079  0.55552271    -1.15400
O939        O  0.84380169  0.33902273  0.53064773    -0.74600
C940        C  0.80808409  0.34115954  0.53171682     0.96200
C941        C  0.75676922  0.16129479  0.59346655     0.92600
Al942      Al  0.83604263  0.23300282  0.58536054     1.55600
O943        O  0.72929425  0.21286048  0.52506992    -0.79200
C944        C  0.91187356  0.30636933  0.57506428     0.96700
C945        C  0.77784473  0.25489287  0.63428400     0.91600
O946        O  0.77866050  0.28002527  0.60893030    -0.84500
O947        O  0.70915054  0.16476759  0.37619596    -0.84000
C948        C  0.60815151  0.24335790  0.34274054     0.95400
O949        O  0.63803165  0.23574816  0.32993816    -0.73100
O950        O  0.69817621  0.20761761  0.65388723    -0.76700
Al951      Al  0.63888840  0.18600494  0.34953376     1.49000
C952        C  0.73994172  0.23922709  0.66115381     0.90700
O953        O  0.74362719  0.28675798  0.42546660    -0.82900
O954        O  0.67691609  0.23556923  0.46456141    -0.76400
Al955      Al  0.72270250  0.22463038  0.39967276     1.90100
O956        O  0.68719876  0.29730377  0.40797957    -0.75500
O957        O  0.59927701  0.17975567  0.43089163    -0.75400
O958        O  0.60472772  0.24554322  0.37795093    -0.81000
O959        O  0.57569254  0.16135730  0.37405828    -0.79200
O960        O  0.66866186  0.21666235  0.38885759    -1.15400
O961        O  0.63544691  0.13216411  0.36397968    -0.74600
C962        C  0.67116428  0.13002748  0.36504899     0.96200
C963        C  0.72247127  0.30988648  0.42680384     0.92600
Al964      Al  0.64319984  0.23817456  0.41869717     1.55600
O965        O  0.74995242  0.25832817  0.35840229    -0.79200
C966        C  0.56737051  0.16480527  0.40839793     0.96700
C967        C  0.70140414  0.21629095  0.46761736     0.91600
O968        O  0.70059175  0.19116110  0.44226296    -0.84500
O969        O  0.66879657  0.44524082  0.32065194    -0.84000
C970        C  0.74738252  0.12482113  0.62051355     0.95400
O971        O  0.73973704  0.08732117  0.60769925    -0.73100
O972        O  0.71161943  0.99904782  0.59833720    -0.76700
Al973      Al  0.69001988  0.03673944  0.62731467     1.49000
C974        C  0.74323472  0.48888778  0.60559727     0.90700
O975        O  0.79079782  0.03272456  0.36990480    -0.82900
O976        O  0.73961948  0.04828990  0.40899531    -0.76400
Al977      Al  0.72866593  0.49154405  0.34411589     1.90100
O978        O  0.80134876  0.09970660  0.35242258    -0.75500
O979        O  0.68381452  0.07013807  0.37532827    -0.75400
O980        O  0.74958454  0.13042933  0.65572260    -0.81000
O981        O  0.66539033  0.07530588  0.65183130    -0.79200
O982        O  0.72069981  0.03762657  0.33329742    -1.15400
O983        O  0.63618935  0.48635782  0.64178127    -0.74600
C984        C  0.63404924  0.44849650  0.64285476     0.96200
C985        C  0.81393207  0.07700438  0.37124353     0.92600
Al986      Al  0.74222066  0.08460197  0.36313350     1.55600
O987        O  0.76234410  0.49797266  0.63617418    -0.79200
C988        C  0.66885691  0.08709211  0.35283161     0.96700
C989        C  0.72033858  0.00452936  0.41205712     0.91600
O990        O  0.69521151  0.48021468  0.38670695    -0.84500
O991        O  0.81043646  0.02593803  0.48731755    -0.84000
C992        C  0.73185686  0.34635912  0.45385102     0.95400
O993        O  0.73949719  0.38385744  0.44103682    -0.73100
O994        O  0.76761474  0.47213093  0.43167069    -0.76700
Al995      Al  0.78921547  0.43444009  0.46064872     1.49000
C996        C  0.73599906  0.48229055  0.43893031     0.90700
O997        O  0.68843737  0.43845112  0.53657241    -0.82900
O998        O  0.73962221  0.42289212  0.57566389    -0.76400
Al999      Al  0.75056734  0.47963382  0.51078230     1.90100
O1000       O  0.67789252  0.37146950  0.51909521    -0.75500
O1001       O  0.79543151  0.40104844  0.54199600    -0.75400
O1002       O  0.72965900  0.34075177  0.48906011    -0.81000
O1003       O  0.81384984  0.39587689  0.48516472    -0.79200
O1004       O  0.75853739  0.43355330  0.49996584    -1.15400
O1005       O  0.84304434  0.98482121  0.47511373    -0.74600
C1006       C  0.84518399  0.02268202  0.47618723     0.96200
C1007       C  0.66530702  0.39417136  0.53791411     0.92600
Al1008     Al  0.73702224  0.38657962  0.52980361     1.55600
O1009       O  0.71688726  0.47320161  0.46950637    -0.79200
C1010       C  0.81038890  0.38409422  0.51949893     0.96700
C1011       C  0.75889780  0.46665224  0.57872395     0.91600
O1012       O  0.78402221  0.49096782  0.55337309    -0.84500
O1013       O  0.94926977  0.26606585  0.59841937    -0.84000
C1014       C  0.62882175  0.36710007  0.56495741     0.95400
O1015       O  0.59132141  0.33727970  0.55213626    -0.73100
O1016       O  0.50305657  0.27708869  0.54278803    -0.76700
Al1017     Al  0.54073012  0.33637986  0.57178852     1.49000
C1018       C  0.49293221  0.23531536  0.55003620     0.90700
O1019       O  0.53678234  0.23155460  0.64767175    -0.82900
O1020       O  0.55229624  0.29826285  0.35344600    -0.76400
Al1021     Al  0.99559008  0.25250828  0.62188540     1.90100
O1022       O  0.60371847  0.28797468  0.63016334    -0.75500
O1023       O  0.57416883  0.37596125  0.65314688    -0.75400
O1024       O  0.63442748  0.37047307  0.60016860    -0.81000
O1025       O  0.57928323  0.39956286  0.59632461    -0.79200
O1026       O  0.54164386  0.30657073  0.61108708    -1.15400
O1027       O  0.99033440  0.33980144  0.58629007    -0.74600
C1028       C  0.95249865  0.30406619  0.58730203     0.96200
C1029       C  0.58105355  0.25271398  0.64900791     0.92600
Al1030     Al  0.58861468  0.33200051  0.64091603     1.55600
O1031       O  0.00206569  0.22530096  0.58060003    -0.79200
C1032       C  0.59110410  0.40787468  0.63065291     0.96700
C1033       C  0.50854054  0.27376584  0.35650030     0.91600
O1034       O  0.98422311  0.27458989  0.33115387    -0.84500
O1035       O  0.52997200  0.20510557  0.43175405    -0.84000
C1036       C  0.85041837  0.10407579  0.39828670     0.95400
O1037       O  0.88792042  0.13389264  0.38546549    -0.73100
O1038       O  0.97618513  0.19408376  0.37612128    -0.76700
Al1039     Al  0.93851091  0.13479306  0.40512143     1.49000
C1040       C  0.98631007  0.23585731  0.38336984     0.90700
O1041       O  0.94246303  0.23962236  0.48100410    -0.82900
O1042       O  0.92694212  0.17291429  0.52011089    -0.76400
Al1043     Al  0.98365272  0.21866429  0.45521920     1.90100
O1044       O  0.87552642  0.18320843  0.46349022    -0.75500
O1045       O  0.90506433  0.09521568  0.48647973    -0.75400
O1046       O  0.84481170  0.10070657  0.43349780    -0.81000
O1047       O  0.89995464  0.07161187  0.42965845    -0.79200
O1048       O  0.93759683  0.16460386  0.44441889    -1.15400
O1049       O  0.48890742  0.13137054  0.41962458    -0.74600
C1050       C  0.52674366  0.16710589  0.42063643     0.96200
C1051       C  0.89819178  0.21846715  0.48233699     0.92600
Al1052     Al  0.89062404  0.13917838  0.47424602     1.55600
O1053       O  0.97718112  0.24587353  0.41393461    -0.79200
C1054       C  0.88812977  0.06330222  0.46398612     0.96700
C1055       C  0.97069826  0.19740599  0.52316699     0.91600
O1056       O  0.99501458  0.19657801  0.49782130    -0.84500
O1057       O  0.77009847  0.30641940  0.87619711    -0.84000
C1058       C  0.87109377  0.22782400  0.84273639     0.95400
O1059       O  0.84121708  0.23543890  0.82993398    -0.73100
O1060       O  0.78107221  0.26356883  0.82055374    -0.76700
Al1061     Al  0.84035956  0.28518050  0.84953334     1.49000
C1062       C  0.73930660  0.23195944  0.82782063     0.90700
O1063       O  0.73561706  0.18442714  0.92546550    -0.82900
O1064       O  0.80232786  0.23560921  0.96455961    -0.76400
Al1065     Al  0.75654566  0.24655644  0.89967302     1.90100
O1066       O  0.79203991  0.17387527  0.90797362    -0.75500
O1067       O  0.87996702  0.29141832  0.93089095    -0.75400
O1068       O  0.87451396  0.22563395  0.87794670    -0.81000
O1069       O  0.90355370  0.30982334  0.87405866    -0.79200
O1070       O  0.81058450  0.25452074  0.88885602    -1.15400
O1071       O  0.84380169  0.33902278  0.86398108    -0.74600
C1072       C  0.80808412  0.34115961  0.86505015     0.96200
C1073       C  0.75676916  0.16129478  0.92679982     0.92600
Al1074     Al  0.83604260  0.23300277  0.91869387     1.55600
O1075       O  0.72929422  0.21286061  0.85840321    -0.79200
C1076       C  0.91187357  0.30636935  0.90839767     0.96700
C1077       C  0.77784461  0.25489274  0.96761731     0.91600
O1078       O  0.77866035  0.28002513  0.94226360    -0.84500
O1079       O  0.70915051  0.16476758  0.70952919    -0.84000
C1080       C  0.60815155  0.24335793  0.67607399     0.95400
O1081       O  0.63803159  0.23574808  0.66327154    -0.73100
O1082       O  0.69817610  0.20761753  0.98722051    -0.76700
Al1083     Al  0.63888839  0.18600491  0.68286716     1.49000
C1084       C  0.73994159  0.23922695  0.99448714     0.90700
O1085       O  0.74362716  0.28675803  0.75879986    -0.82900
O1086       O  0.67691608  0.23556917  0.79789471    -0.76400
Al1087     Al  0.72270256  0.22463046  0.73300604     1.90100
O1088       O  0.68719862  0.29730368  0.74131288    -0.75500
O1089       O  0.59927701  0.17975569  0.76422505    -0.75400
O1090       O  0.60472780  0.24554328  0.71128436    -0.81000
O1091       O  0.57569260  0.16135735  0.70739169    -0.79200
O1092       O  0.66866187  0.21666237  0.72219096    -1.15400
O1093       O  0.63544683  0.13216403  0.69731302    -0.74600
C1094       C  0.67116425  0.13002744  0.69838226     0.96200
C1095       C  0.72247112  0.30988642  0.76013717     0.92600
Al1096     Al  0.64319982  0.23817456  0.75203054     1.55600
O1097       O  0.74995249  0.25832829  0.69173558    -0.79200
C1098       C  0.56737052  0.16480525  0.74173133     0.96700
C1099       C  0.70140426  0.21629101  0.80095062     0.91600
O1100       O  0.70059194  0.19116121  0.77559621    -0.84500
O1101       O  0.66879663  0.44524093  0.65398537    -0.84000
C1102       C  0.74738248  0.12482115  0.95384686     0.95400
O1103       O  0.73973692  0.08732113  0.94103257    -0.73100
O1104       O  0.71161935  0.99904784  0.93167045    -0.76700
Al1105     Al  0.69001985  0.03673945  0.96064796     1.49000
C1106       C  0.74323480  0.48888788  0.93893050     0.90700
O1107       O  0.79079773  0.03272448  0.70323816    -0.82900
O1108       O  0.73961946  0.04828995  0.74232880    -0.76400
Al1109     Al  0.72866593  0.49154412  0.67744930     1.90100
O1110       O  0.80134876  0.09970658  0.68575604    -0.75500
O1111       O  0.68381455  0.07013814  0.70866168    -0.75400
O1112       O  0.74958465  0.13042940  0.98905590    -0.81000
O1113       O  0.66539038  0.07530588  0.98516461    -0.79200
O1114       O  0.72069980  0.03762654  0.66663087    -1.15400
O1115       O  0.63618943  0.48635774  0.97511449    -0.74600
C1116       C  0.63404928  0.44849640  0.97618805     0.96200
C1117       C  0.81393208  0.07700430  0.70457686     0.92600
Al1118     Al  0.74222067  0.08460197  0.69646696     1.55600
O1119       O  0.76234414  0.49797267  0.96950742    -0.79200
C1120       C  0.66885689  0.08709207  0.68616495     0.96700
C1121       C  0.72033859  0.00452940  0.74539055     0.91600
O1122       O  0.69521145  0.48021468  0.72004039    -0.84500
O1123       O  0.81043637  0.02593795  0.82065079    -0.84000
C1124       C  0.73185666  0.34635907  0.78718433     0.95400
O1125       O  0.73949700  0.38385736  0.77437012    -0.73100
O1126       O  0.76761463  0.47213077  0.76500401    -0.76700
Al1127     Al  0.78921542  0.43444002  0.79398200     1.49000
C1128       C  0.73599902  0.48229051  0.77226365     0.90700
O1129       O  0.68843734  0.43845112  0.86990568    -0.82900
O1130       O  0.73962227  0.42289223  0.90899714    -0.76400
Al1131     Al  0.75056736  0.47963388  0.84411558     1.90100
O1132       O  0.67789250  0.37146951  0.85242852    -0.75500
O1133       O  0.79543158  0.40104854  0.87532927    -0.75400
O1134       O  0.72965889  0.34075180  0.82239344    -0.81000
O1135       O  0.81384979  0.39587678  0.81849800    -0.79200
O1136       O  0.75853742  0.43355335  0.83329913    -1.15400
O1137       O  0.84304427  0.98482113  0.80844701    -0.74600
C1138       C  0.84518390  0.02268194  0.80952052     0.96200
C1139       C  0.66530697  0.39417135  0.87124740     0.92600
Al1140     Al  0.73702226  0.38657969  0.86313690     1.55600
O1141       O  0.71688725  0.47320169  0.80283971    -0.79200
C1142       C  0.81038893  0.38409426  0.85283225     0.96700
C1143       C  0.75889788  0.46665234  0.91205719     0.91600
O1144       O  0.78402231  0.49096792  0.88670634    -0.84500
O1145       O  0.94926986  0.26606593  0.93175266    -0.84000
C1146       C  0.62882168  0.36710003  0.89829074     0.95400
O1147       O  0.59132129  0.33727967  0.88546966    -0.73100
O1148       O  0.50305653  0.27708870  0.87612138    -0.76700
Al1149     Al  0.54073004  0.33637989  0.90512192     1.49000
C1150       C  0.49293221  0.23531539  0.88336954     0.90700
O1151       O  0.53678222  0.23155458  0.98100502    -0.82900
O1152       O  0.55229619  0.29826292  0.68677932    -0.76400
Al1153     Al  0.99559011  0.25250829  0.95521870     1.90100
O1154       O  0.60371832  0.28797466  0.96349660    -0.75500
O1155       O  0.57416867  0.37596119  0.98648022    -0.75400
O1156       O  0.63442742  0.37047300  0.93350193    -0.81000
O1157       O  0.57928313  0.39956289  0.92965798    -0.79200
O1158       O  0.54164373  0.30657073  0.94442046    -1.15400
O1159       O  0.99033444  0.33980158  0.91962358    -0.74600
C1160       C  0.95249869  0.30406630  0.92063546     0.96200
C1161       C  0.58105343  0.25271396  0.98234118     0.92600
Al1162     Al  0.58861456  0.33200046  0.97424936     1.55600
O1163       O  0.00206563  0.22530103  0.91393333    -0.79200
C1164       C  0.59110407  0.40787464  0.96398627     0.96700
C1165       C  0.50854049  0.27376585  0.68983357     0.91600
O1166       O  0.98422318  0.27459003  0.66448715    -0.84500
O1167       O  0.52997206  0.20510565  0.76508732    -0.84000
C1168       C  0.85041845  0.10407572  0.73161998     0.95400
O1169       O  0.88792045  0.13389265  0.71879877    -0.73100
O1170       O  0.97618509  0.19408371  0.70945456    -0.76700
Al1171     Al  0.93851091  0.13479301  0.73845474     1.49000
C1172       C  0.98631002  0.23585726  0.71670309     0.90700
O1173       O  0.94246307  0.23962236  0.81433742    -0.82900
O1174       O  0.92694213  0.17291428  0.85344418    -0.76400
Al1175     Al  0.98365278  0.21866432  0.78855251     1.90100
O1176       O  0.87552648  0.18320844  0.79682351    -0.75500
O1177       O  0.90506428  0.09521550  0.81981313    -0.75400
O1178       O  0.84481178  0.10070656  0.76683108    -0.81000
O1179       O  0.89995461  0.07161175  0.76299183    -0.79200
O1180       O  0.93759689  0.16460383  0.77775223    -1.15400
O1181       O  0.48890743  0.13137060  0.75295786    -0.74600
C1182       C  0.52674369  0.16710593  0.75396974     0.96200
C1183       C  0.89819181  0.21846716  0.81567030     0.92600
Al1184     Al  0.89062408  0.13917833  0.80757933     1.55600
O1185       O  0.97718117  0.24587355  0.74726787    -0.79200
C1186       C  0.88812970  0.06330206  0.79731946     0.96700
C1187       C  0.97069828  0.19740609  0.85650032     0.91600
O1188       O  0.99501470  0.19657815  0.83115469    -0.84500
O1189       O  0.77009849  0.80641942  0.20953046    -0.84000
C1190       C  0.87109371  0.72782399  0.17606971     0.95400
O1191       O  0.84121706  0.73543891  0.16326724    -0.73100
O1192       O  0.78107222  0.76356880  0.15388706    -0.76700
Al1193     Al  0.84035955  0.78518049  0.18286664     1.49000
C1194       C  0.73930662  0.73195944  0.16115402     0.90700
O1195       O  0.73561703  0.68442717  0.25879881    -0.82900
O1196       O  0.80232784  0.73560918  0.29789299    -0.76400
Al1197     Al  0.75654563  0.74655647  0.23300639     1.90100
O1198       O  0.79203986  0.67387527  0.24130689    -0.75500
O1199       O  0.87996704  0.79141832  0.26422429    -0.75400
O1200       O  0.87451381  0.72563392  0.21128004    -0.81000
O1201       O  0.90355368  0.80982331  0.20739197    -0.79200
O1202       O  0.81058446  0.75452078  0.22218937    -1.15400
O1203       O  0.84380170  0.83902277  0.19731434    -0.74600
C1204       C  0.80808414  0.84115962  0.19838348     0.96200
C1205       C  0.75676910  0.66129477  0.26013308     0.92600
Al1206     Al  0.83604254  0.73300277  0.25202719     1.55600
O1207       O  0.72929425  0.71286067  0.19173661    -0.79200
C1208       C  0.91187358  0.80636933  0.24173098     0.96700
C1209       C  0.77784462  0.75489274  0.30095070     0.91600
O1210       O  0.77866035  0.78002515  0.27559702    -0.84500
O1211       O  0.70915039  0.66476753  0.04286266    -0.84000
C1212       C  0.60815156  0.74335793  0.00940728     0.95400
O1213       O  0.63803163  0.73574810  0.99660488    -0.73100
O1214       O  0.69817614  0.70761756  0.32055382    -0.76700
Al1215     Al  0.63888835  0.68600490  0.01620045     1.49000
C1216       C  0.73994162  0.73922695  0.32782049     0.90700
O1217       O  0.74362717  0.78675802  0.09213320    -0.82900
O1218       O  0.67691607  0.73556916  0.13122812    -0.76400
Al1219     Al  0.72270249  0.72463041  0.06633942     1.90100
O1220       O  0.68719860  0.79730366  0.07464630    -0.75500
O1221       O  0.59927699  0.67975567  0.09755832    -0.75400
O1222       O  0.60472780  0.74554331  0.04461766    -0.81000
O1223       O  0.57569250  0.66135734  0.04072498    -0.79200
O1224       O  0.66866183  0.71666235  0.05552430    -1.15400
O1225       O  0.63544677  0.63216399  0.03064623    -0.74600
C1226       C  0.67116419  0.63002742  0.03171560     0.96200
C1227       C  0.72247113  0.80988638  0.09347057     0.92600
Al1228     Al  0.64319981  0.73817454  0.08536388     1.55600
O1229       O  0.74995233  0.75832816  0.02506891    -0.79200
C1230       C  0.56737047  0.66480527  0.07506463     0.96700
C1231       C  0.70140426  0.71629101  0.13428405     0.91600
O1232       O  0.70059194  0.69116121  0.10892966    -0.84500
O1233       O  0.66879665  0.94524091  0.98731863    -0.84000
C1234       C  0.74738240  0.62482112  0.28718011     0.95400
O1235       O  0.73973684  0.58732110  0.27436583    -0.73100
O1236       O  0.71161937  0.49904777  0.26500383    -0.76700
Al1237     Al  0.69001979  0.53673941  0.29398127     1.49000
C1238       C  0.74323483  0.98888787  0.27226386     0.90700
O1239       O  0.79079775  0.53272449  0.03657142    -0.82900
O1240       O  0.73961944  0.54828989  0.07566206    -0.76400
Al1241     Al  0.72866595  0.99154408  0.01078257     1.90100
O1242       O  0.80134869  0.59970656  0.01908931    -0.75500
O1243       O  0.68381459  0.57013813  0.04199498    -0.75400
O1244       O  0.74958462  0.63042939  0.32238914    -0.81000
O1245       O  0.66539031  0.57530587  0.31849795    -0.79200
O1246       O  0.72069979  0.53762651  0.99996415    -1.15400
O1247       O  0.63618942  0.98635772  0.30844780    -0.74600
C1248       C  0.63404929  0.94849640  0.30952141     0.96200
C1249       C  0.81393205  0.57700433  0.03791015     0.92600
Al1250     Al  0.74222065  0.58460194  0.02980024     1.55600
O1251       O  0.76234423  0.99797273  0.30284075    -0.79200
C1252       C  0.66885692  0.58709208  0.01949826     0.96700
C1253       C  0.72033852  0.50452935  0.07872386     0.91600
O1254       O  0.69521148  0.98021466  0.05337369    -0.84500
O1255       O  0.81043639  0.52593797  0.15398421    -0.84000
C1256       C  0.73185671  0.84635908  0.12051767     0.95400
O1257       O  0.73949704  0.88385733  0.10770341    -0.73100
O1258       O  0.76761464  0.97213080  0.09833735    -0.76700
Al1259     Al  0.78921544  0.93444001  0.12731529     1.49000
C1260       C  0.73599904  0.98229054  0.10559700     0.90700
O1261       O  0.68843736  0.93845112  0.20323895    -0.82900
O1262       O  0.73962229  0.92289222  0.24233044    -0.76400
Al1263     Al  0.75056740  0.97963387  0.17744891     1.90100
O1264       O  0.67789255  0.87146948  0.18576190    -0.75500
O1265       O  0.79543163  0.90104855  0.20866260    -0.75400
O1266       O  0.72965893  0.84075182  0.15572680    -0.81000
O1267       O  0.81384980  0.89587676  0.15183131    -0.79200
O1268       O  0.75853744  0.93355333  0.16663242    -1.15400
O1269       O  0.84304425  0.48482116  0.14178025    -0.74600
C1270       C  0.84518391  0.52268197  0.14285388     0.96200
C1271       C  0.66530700  0.89417133  0.20458070     0.92600
Al1272     Al  0.73702231  0.88657970  0.19647023     1.55600
O1273       O  0.71688729  0.97320172  0.13617307    -0.79200
C1274       C  0.81038898  0.88409427  0.18616557     0.96700
C1275       C  0.75889789  0.96665233  0.24539052     0.91600
O1276       O  0.78402232  0.99096791  0.22003966    -0.84500
O1277       O  0.94926987  0.76606596  0.26508605    -0.84000
C1278       C  0.62882171  0.86710006  0.23162406     0.95400
O1279       O  0.59132133  0.83727968  0.21880297    -0.73100
O1280       O  0.50305660  0.77708879  0.20945471    -0.76700
Al1281     Al  0.54073008  0.83637991  0.23845525     1.49000
C1282       C  0.49293228  0.73531546  0.21670283     0.90700
O1283       O  0.53678225  0.73155458  0.31433828    -0.82900
O1284       O  0.55229618  0.79826295  0.02011266    -0.76400
Al1285     Al  0.99559011  0.75250829  0.28855202     1.90100
O1286       O  0.60371834  0.78797465  0.29682984    -0.75500
O1287       O  0.57416871  0.87596118  0.31981361    -0.75400
O1288       O  0.63442744  0.87047301  0.26683524    -0.81000
O1289       O  0.57928317  0.89956288  0.26299136    -0.79200
O1290       O  0.54164375  0.80657075  0.27775380    -1.15400
O1291       O  0.99033447  0.83980157  0.25295680    -0.74600
C1292       C  0.95249871  0.80406629  0.25396876     0.96200
C1293       C  0.58105346  0.75271397  0.31567443     0.92600
Al1294     Al  0.58861459  0.83200045  0.30758269     1.55600
O1295       O  0.00206566  0.72530102  0.24726662    -0.79200
C1296       C  0.59110409  0.90787463  0.29731966     0.96700
C1297       C  0.50854048  0.77376585  0.02316695     0.91600
O1298       O  0.98422319  0.77458997  0.99782049    -0.84500
O1299       O  0.52997200  0.70510560  0.09842076    -0.84000
C1300       C  0.85041839  0.60407575  0.06495334     0.95400
O1301       O  0.88792042  0.63389267  0.05213216    -0.73100
O1302       O  0.97618512  0.69408374  0.04278797    -0.76700
Al1303     Al  0.93851091  0.63479302  0.07178806     1.49000
C1304       C  0.98631007  0.73585729  0.05003651     0.90700
O1305       O  0.94246302  0.73962239  0.14767074    -0.82900
O1306       O  0.92694217  0.67291427  0.18677749    -0.76400
Al1307     Al  0.98365279  0.71866432  0.12188589     1.90100
O1308       O  0.87552643  0.68320835  0.13015696    -0.75500
O1309       O  0.90506438  0.59521553  0.15314640    -0.75400
O1310       O  0.84481173  0.60070653  0.10016444    -0.81000
O1311       O  0.89995460  0.57161173  0.09632511    -0.79200
O1312       O  0.93759691  0.66460382  0.11108558    -1.15400
O1313       O  0.48890734  0.63137061  0.08629108    -0.74600
C1314       C  0.52674362  0.66710592  0.08730308     0.96200
C1315       C  0.89819177  0.71846713  0.14900367     0.92600
Al1316     Al  0.89062410  0.63917831  0.14091269     1.55600
O1317       O  0.97718124  0.74587359  0.08060130    -0.79200
C1318       C  0.88812971  0.56330209  0.13065276     0.96700
C1319       C  0.97069831  0.69740612  0.18983360     0.91600
O1320       O  0.99501471  0.69657813  0.16448800    -0.84500
O1321       O  0.77009849  0.80641941  0.54286384    -0.84000
C1322       C  0.87109374  0.72782398  0.50940306     0.95400
O1323       O  0.84121708  0.73543895  0.49660061    -0.73100
O1324       O  0.78107215  0.76356886  0.48722047    -0.76700
Al1325     Al  0.84035951  0.78518051  0.51620003     1.49000
C1326       C  0.73930659  0.73195933  0.49448734     0.90700
O1327       O  0.73561708  0.68442718  0.59213225    -0.82900
O1328       O  0.80232791  0.73560929  0.63122635    -0.76400
Al1329     Al  0.75654564  0.74655641  0.56633974     1.90100
O1330       O  0.79203988  0.67387530  0.57464026    -0.75500
O1331       O  0.87996705  0.79141833  0.59755768    -0.75400
O1332       O  0.87451383  0.72563386  0.54461337    -0.81000
O1333       O  0.90355359  0.80982332  0.54072534    -0.79200
O1334       O  0.81058448  0.75452076  0.55552273    -1.15400
O1335       O  0.84380170  0.83902280  0.53064777    -0.74600
C1336       C  0.80808410  0.84115962  0.53171688     0.96200
C1337       C  0.75676914  0.66129480  0.59346650     0.92600
Al1338     Al  0.83604257  0.73300278  0.58536057     1.55600
O1339       O  0.72929425  0.71286044  0.52506990    -0.79200
C1340       C  0.91187351  0.80636926  0.57506433     0.96700
C1341       C  0.77784465  0.75489281  0.63428402     0.91600
O1342       O  0.77866039  0.78002518  0.60893030    -0.84500
O1343       O  0.70915040  0.66476749  0.37619596    -0.84000
C1344       C  0.60815149  0.74335799  0.34274057     0.95400
O1345       O  0.63803156  0.73574816  0.32993815    -0.73100
O1346       O  0.69817615  0.70761765  0.65388721    -0.76700
Al1347     Al  0.63888835  0.68600493  0.34953376     1.49000
C1348       C  0.73994166  0.73922706  0.66115382     0.90700
O1349       O  0.74362717  0.78675795  0.42546658    -0.82900
O1350       O  0.67691615  0.73556917  0.46456142    -0.76400
Al1351     Al  0.72270246  0.72463035  0.39967273     1.90100
O1352       O  0.68719871  0.79730372  0.40797961    -0.75500
O1353       O  0.59927705  0.67975569  0.43089160    -0.75400
O1354       O  0.60472773  0.74554332  0.37795096    -0.81000
O1355       O  0.57569249  0.66135732  0.37405829    -0.79200
O1356       O  0.66866183  0.71666237  0.38885759    -1.15400
O1357       O  0.63544679  0.63216403  0.36397967    -0.74600
C1358       C  0.67116418  0.63002739  0.36504898     0.96200
C1359       C  0.72247125  0.80988643  0.42680386     0.92600
Al1360     Al  0.64319984  0.73817456  0.41869719     1.55600
O1361       O  0.74995232  0.75832811  0.35840228    -0.79200
C1362       C  0.56737049  0.66480532  0.40839792     0.96700
C1363       C  0.70140429  0.71629097  0.46761734     0.91600
O1364       O  0.70059195  0.69116117  0.44226293    -0.84500
O1365       O  0.66879672  0.94524082  0.32065191    -0.84000
C1366       C  0.74738244  0.62482113  0.62051348     0.95400
O1367       O  0.73973693  0.58732116  0.60769919    -0.73100
O1368       O  0.71161933  0.49904786  0.59833721    -0.76700
Al1369     Al  0.69001981  0.53673948  0.62731467     1.49000
C1370       C  0.74323480  0.98888773  0.60559727     0.90700
O1371       O  0.79079775  0.53272451  0.36990479    -0.82900
O1372       O  0.73961949  0.54828992  0.40899534    -0.76400
Al1373     Al  0.72866601  0.99154408  0.34411587     1.90100
O1374       O  0.80134883  0.59970660  0.35242260    -0.75500
O1375       O  0.68381472  0.57013822  0.37532829    -0.75400
O1376       O  0.74958449  0.63042935  0.65572254    -0.81000
O1377       O  0.66539033  0.57530595  0.65183130    -0.79200
O1378       O  0.72069978  0.53762655  0.33329745    -1.15400
O1379       O  0.63618942  0.98635779  0.64178123    -0.74600
C1380       C  0.63404921  0.94849643  0.64285474     0.96200
C1381       C  0.81393208  0.57700432  0.37124352     0.92600
Al1382     Al  0.74222075  0.58460201  0.36313351     1.55600
O1383       O  0.76234411  0.99797250  0.63617420    -0.79200
C1384       C  0.66885693  0.58709207  0.35283162     0.96700
C1385       C  0.72033855  0.50452938  0.41205714     0.91600
O1386       O  0.69521153  0.98021464  0.38670696    -0.84500
O1387       O  0.81043645  0.52593803  0.48731754    -0.84000
C1388       C  0.73185685  0.84635915  0.45385099     0.95400
O1389       O  0.73949711  0.88385743  0.44103680    -0.73100
O1390       O  0.76761476  0.97213091  0.43167071    -0.76700
Al1391     Al  0.78921548  0.93444009  0.46064872     1.49000
C1392       C  0.73599908  0.98229055  0.43893031     0.90700
O1393       O  0.68843736  0.93845109  0.53657242    -0.82900
O1394       O  0.73962216  0.92289207  0.57566388    -0.76400
Al1395     Al  0.75056733  0.97963379  0.51078230     1.90100
O1396       O  0.67789247  0.87146945  0.51909521    -0.75500
O1397       O  0.79543154  0.90104854  0.54199596    -0.75400
O1398       O  0.72965900  0.84075183  0.48906011    -0.81000
O1399       O  0.81384987  0.89587685  0.48516471    -0.79200
O1400       O  0.75853736  0.93355329  0.49996582    -1.15400
O1401       O  0.84304421  0.48482112  0.47511375    -0.74600
C1402       C  0.84518394  0.52268195  0.47618722     0.96200
C1403       C  0.66530701  0.89417132  0.53791413     0.92600
Al1404     Al  0.73702222  0.88657962  0.52980359     1.55600
O1405       O  0.71688721  0.97320155  0.46950635    -0.79200
C1406       C  0.81038896  0.88409428  0.51949893     0.96700
C1407       C  0.75889787  0.96665218  0.57872395     0.91600
O1408       O  0.78402228  0.99096774  0.55337308    -0.84500
O1409       O  0.94926973  0.76606577  0.59841937    -0.84000
C1410       C  0.62882173  0.86710005  0.56495742     0.95400
O1411       O  0.59132139  0.83727968  0.55213626    -0.73100
O1412       O  0.50305648  0.77708864  0.54278801    -0.76700
Al1413     Al  0.54073004  0.83637981  0.57178851     1.49000
C1414       C  0.49293228  0.73531538  0.55003618     0.90700
O1415       O  0.53678230  0.73155455  0.64767175    -0.82900
O1416       O  0.55229613  0.79826280  0.35344599    -0.76400
Al1417     Al  0.99559008  0.75250829  0.62188540     1.90100
O1418       O  0.60371840  0.78797465  0.63016335    -0.75500
O1419       O  0.57416873  0.87596123  0.65314688    -0.75400
O1420       O  0.63442742  0.87047306  0.60016861    -0.81000
O1421       O  0.57928313  0.89956281  0.59632460    -0.79200
O1422       O  0.54164380  0.80657073  0.61108710    -1.15400
O1423       O  0.99033432  0.83980134  0.58629006    -0.74600
C1424       C  0.95249858  0.80406610  0.58730202     0.96200
C1425       C  0.58105350  0.75271392  0.64900791     0.92600
Al1426     Al  0.58861463  0.83200051  0.64091604     1.55600
O1427       O  0.00206575  0.72530105  0.58060003    -0.79200
C1428       C  0.59110401  0.90787466  0.63065290     0.96700
C1429       C  0.50854044  0.77376581  0.35650030     0.91600
O1430       O  0.98422311  0.77458984  0.33115382    -0.84500
O1431       O  0.52997198  0.70510565  0.43175401    -0.84000
C1432       C  0.85041838  0.60407567  0.39828670     0.95400
O1433       O  0.88792043  0.63389249  0.38546551    -0.73100
O1434       O  0.97618504  0.69408375  0.37612129    -0.76700
Al1435     Al  0.93851095  0.63479301  0.40512144     1.49000
C1436       C  0.98631004  0.73585732  0.38336984     0.90700
O1437       O  0.94246306  0.73962237  0.48100413    -0.82900
O1438       O  0.92694208  0.67291420  0.52011090    -0.76400
Al1439     Al  0.98365281  0.71866432  0.45521923     1.90100
O1440       O  0.87552650  0.68320842  0.46349021    -0.75500
O1441       O  0.90506444  0.59521555  0.48647972    -0.75400
O1442       O  0.84481170  0.60070647  0.43349781    -0.81000
O1443       O  0.89995470  0.57161175  0.42965846    -0.79200
O1444       O  0.93759691  0.66460384  0.44441889    -1.15400
O1445       O  0.48890740  0.63137058  0.41962462    -0.74600
C1446       C  0.52674366  0.66710596  0.42063646     0.96200
C1447       C  0.89819180  0.71846715  0.48233699     0.92600
Al1448     Al  0.89062411  0.63917831  0.47424601     1.55600
O1449       O  0.97718138  0.74587370  0.41393466    -0.79200
C1450       C  0.88812980  0.56330209  0.46398611     0.96700
C1451       C  0.97069822  0.69740594  0.52316701     0.91600
O1452       O  0.99501453  0.69657794  0.49782132    -0.84500
O1453       O  0.77009852  0.80641933  0.87619708    -0.84000
C1454       C  0.87109380  0.72782399  0.84273642     0.95400
O1455       O  0.84121722  0.73543903  0.82993395    -0.73100
O1456       O  0.78107214  0.76356877  0.82055373    -0.76700
Al1457     Al  0.84035960  0.78518055  0.84953333     1.49000
C1458       C  0.73930654  0.73195933  0.82782065     0.90700
O1459       O  0.73561708  0.68442714  0.92546556    -0.82900
O1460       O  0.80232800  0.73560936  0.96455962    -0.76400
Al1461     Al  0.75654569  0.74655642  0.89967303     1.90100
O1462       O  0.79203988  0.67387524  0.90797363    -0.75500
O1463       O  0.87996701  0.79141830  0.93089092    -0.75400
O1464       O  0.87451390  0.72563389  0.87794672    -0.81000
O1465       O  0.90355372  0.80982342  0.87405866    -0.79200
O1466       O  0.81058452  0.75452078  0.88885602    -1.15400
O1467       O  0.84380175  0.83902284  0.86398106    -0.74600
C1468       C  0.80808413  0.84115958  0.86505011     0.96200
C1469       C  0.75676914  0.66129476  0.92679985     0.92600
Al1470     Al  0.83604260  0.73300279  0.91869386     1.55600
O1471       O  0.72929425  0.71286045  0.85840321    -0.79200
C1472       C  0.91187357  0.80636932  0.90839765     0.96700
C1473       C  0.77784472  0.75489286  0.96761730     0.91600
O1474       O  0.77866048  0.78002525  0.94226359    -0.84500
O1475       O  0.70915055  0.66476759  0.70952923    -0.84000
C1476       C  0.60815151  0.74335789  0.67607399     0.95400
O1477       O  0.63803163  0.73574814  0.66327157    -0.73100
O1478       O  0.69817615  0.70761754  0.98722050    -0.76700
Al1479     Al  0.63888840  0.68600492  0.68286714     1.49000
C1480       C  0.73994165  0.73922700  0.99448713     0.90700
O1481       O  0.74362715  0.78675797  0.75879989    -0.82900
O1482       O  0.67691609  0.73556920  0.79789471    -0.76400
Al1483     Al  0.72270250  0.72463038  0.73300606     1.90100
O1484       O  0.68719867  0.79730375  0.74131297    -0.75500
O1485       O  0.59927699  0.67975564  0.76422504    -0.75400
O1486       O  0.60472774  0.74554320  0.71128437    -0.81000
O1487       O  0.57569258  0.66135729  0.70739168    -0.79200
O1488       O  0.66866184  0.71666232  0.72219097    -1.15400
O1489       O  0.63544690  0.63216410  0.69731299    -0.74600
C1490       C  0.67116429  0.63002750  0.69838224     0.96200
C1491       C  0.72247120  0.80988647  0.76013717     0.92600
Al1492     Al  0.64319982  0.73817453  0.75203056     1.55600
O1493       O  0.74995243  0.75832821  0.69173561    -0.79200
C1494       C  0.56737051  0.66480524  0.74173132     0.96700
C1495       C  0.70140416  0.71629093  0.80095065     0.91600
O1496       O  0.70059178  0.69116110  0.77559624    -0.84500
O1497       O  0.66879655  0.94524079  0.65398538    -0.84000
C1498       C  0.74738247  0.62482112  0.95384687     0.95400
O1499       O  0.73973706  0.58732116  0.94103261    -0.73100
O1500       O  0.71161942  0.49904796  0.93167045    -0.76700
Al1501     Al  0.69001987  0.53673945  0.96064796     1.49000
C1502       C  0.74323474  0.98888776  0.93893052     0.90700
O1503       O  0.79079780  0.53272461  0.70323812    -0.82900
O1504       O  0.73961951  0.54828991  0.74232876    -0.76400
Al1505     Al  0.72866591  0.99154402  0.67744932     1.90100
O1506       O  0.80134878  0.59970673  0.68575606    -0.75500
O1507       O  0.68381460  0.57013824  0.70866169    -0.75400
O1508       O  0.74958453  0.63042934  0.98905591    -0.81000
O1509       O  0.66539032  0.57530587  0.98516461    -0.79200
O1510       O  0.72069980  0.53762663  0.66663087    -1.15400
O1511       O  0.63618941  0.98635783  0.97511452    -0.74600
C1512       C  0.63404928  0.94849650  0.97618804     0.96200
C1513       C  0.81393210  0.57700442  0.70457685     0.92600
Al1514     Al  0.74222069  0.58460205  0.69646696     1.55600
O1515       O  0.76234411  0.99797262  0.96950742    -0.79200
C1516       C  0.66885693  0.58709215  0.68616496     0.96700
C1517       C  0.72033856  0.50452936  0.74539052     0.91600
O1518       O  0.69521153  0.98021471  0.72004039    -0.84500
O1519       O  0.81043640  0.52593804  0.82065078    -0.84000
C1520       C  0.73185683  0.84635912  0.78718434     0.95400
O1521       O  0.73949722  0.88385746  0.77437012    -0.73100
O1522       O  0.76761476  0.97213091  0.76500400    -0.76700
Al1523     Al  0.78921550  0.93444008  0.79398202     1.49000
C1524       C  0.73599911  0.98229057  0.77226366     0.90700
O1525       O  0.68843735  0.93845108  0.86990568    -0.82900
O1526       O  0.73962221  0.92289211  0.90899715    -0.76400
Al1527     Al  0.75056732  0.97963378  0.84411558     1.90100
O1528       O  0.67789249  0.87146948  0.85242848    -0.75500
O1529       O  0.79543147  0.90104841  0.87532930    -0.75400
O1530       O  0.72965887  0.84075177  0.82239343    -0.81000
O1531       O  0.81384982  0.89587687  0.81849801    -0.79200
O1532       O  0.75853741  0.93355329  0.83329914    -1.15400
O1533       O  0.84304425  0.48482117  0.80844698    -0.74600
C1534       C  0.84518393  0.52268200  0.80952052     0.96200
C1535       C  0.66530697  0.89417133  0.87124738     0.92600
Al1536     Al  0.73702221  0.88657961  0.86313690     1.55600
O1537       O  0.71688725  0.97320155  0.80283968    -0.79200
C1538       C  0.81038887  0.88409421  0.85283223     0.96700
C1539       C  0.75889781  0.96665223  0.91205720     0.91600
O1540       O  0.78402220  0.99096782  0.88670634    -0.84500
O1541       O  0.94926977  0.76606580  0.93175266    -0.84000
C1542       C  0.62882170  0.86710006  0.89829073     0.95400
O1543       O  0.59132131  0.83727972  0.88546965    -0.73100
O1544       O  0.50305654  0.77708869  0.87612138    -0.76700
Al1545     Al  0.54073007  0.83637988  0.90512193     1.49000
C1546       C  0.49293217  0.73531536  0.88336954     0.90700
O1547       O  0.53678235  0.73155461  0.98100502    -0.82900
O1548       O  0.55229617  0.79826292  0.68677931    -0.76400
Al1549     Al  0.99559010  0.75250827  0.95521871     1.90100
O1550       O  0.60371846  0.78797475  0.96349666    -0.75500
O1551       O  0.57416881  0.87596133  0.98648025    -0.75400
O1552       O  0.63442746  0.87047313  0.93350192    -0.81000
O1553       O  0.57928321  0.89956290  0.92965797    -0.79200
O1554       O  0.54164380  0.80657076  0.94442046    -1.15400
O1555       O  0.99033441  0.83980145  0.91962359    -0.74600
C1556       C  0.95249864  0.80406617  0.92063544     0.96200
C1557       C  0.58105356  0.75271398  0.98234118     0.92600
Al1558     Al  0.58861465  0.83200057  0.97424939     1.55600
O1559       O  0.00206572  0.72530096  0.91393334    -0.79200
C1560       C  0.59110412  0.90787474  0.96398625     0.96700
C1561       C  0.50854048  0.77376586  0.68983358     0.91600
O1562       O  0.98422313  0.77458997  0.66448717    -0.84500
O1563       O  0.52997200  0.70510556  0.76508733    -0.84000
C1564       C  0.85041840  0.60407575  0.73161999     0.95400
O1565       O  0.88792040  0.63389266  0.71879879    -0.73100
O1566       O  0.97618508  0.69408373  0.70945454    -0.76700
Al1567     Al  0.93851087  0.63479305  0.73845473     1.49000
C1568       C  0.98631006  0.73585729  0.71670311     0.90700
O1569       O  0.94246304  0.73962236  0.81433741    -0.82900
O1570       O  0.92694210  0.67291428  0.85344419    -0.76400
Al1571     Al  0.98365273  0.71866427  0.78855250     1.90100
O1572       O  0.87552643  0.68320843  0.79682352    -0.75500
O1573       O  0.90506427  0.59521562  0.81981313    -0.75400
O1574       O  0.84481170  0.60070655  0.76683109    -0.81000
O1575       O  0.89995462  0.57161188  0.76299183    -0.79200
O1576       O  0.93759682  0.66460384  0.77775222    -1.15400
O1577       O  0.48890742  0.63137053  0.75295784    -0.74600
C1578       C  0.52674365  0.66710586  0.75396973     0.96200
C1579       C  0.89819178  0.71846712  0.81567033     0.92600
Al1580     Al  0.89062403  0.63917836  0.80757934     1.55600
O1581       O  0.97718111  0.74587351  0.74726788    -0.79200
C1582       C  0.88812974  0.56330220  0.79731949     0.96700
C1583       C  0.97069826  0.69740598  0.85650032     0.91600
O1584       O  0.99501461  0.69657802  0.83115466    -0.84500
loop_ 
_geom_bond_atom_site_label_1 
_geom_bond_atom_site_label_2 
_geom_bond_distance 
_geom_bond_site_symmetry_2 
_ccdc_geom_bond_type 
O1           C16   1.294       .  A
O1           Al9   2.020       .  S
C2           O12   1.289       .  A
C2            O3   1.246       .  A
C2          C127   1.479       .  S
O3           Al5   1.834       .  S
O4            C6   1.298       .  A
O4           Al5   2.043       .  S
Al5          O13   2.061       .  S
Al5          O15   1.835       .  S
Al5          O14   1.754       .  S
C6           O19   1.243       .  A
C6           C43   1.479       .  S
O7           C17   1.293       .  A
O7           Al9   2.069       .  S
O8           C21   1.285       .  A
O8          Al18   2.043       .  S
Al9          O22   1.838       .  S
Al9          O19   1.826       .  S
Al9          O14   1.747       .  S
O10          C17   1.247       .  A
O10         Al18   1.834       .  S
O11          C20   1.239       .  A
O11         Al18   1.830       .  S
O12         Al18   2.062       .  S
O13          C20   1.296       .  A
O14         Al18   1.748       .  S
O15          C16   1.242       .  A
C16          C86   1.477       .  S
C17          C46   1.479       .  S
C20         C104   1.478       .  S
C21          O22   1.242       .  A
C21          C28   1.479       .  S
O23          C38   1.294       .  A
O23         Al31   2.020       .  S
C24          O34   1.289       .  A
C24          O25   1.246   1_554  A
C24         C369   1.479   1_554  S
O25         Al27   1.834   1_556  S
O26          C28   1.298       .  A
O26        Al159   2.043       .  S
Al27         O35   2.061       .  S
Al27         O37   1.835       .  S
Al27        O290   2.043   1_554  S
Al27         O36   1.754       .  S
C28         O173   1.243       .  A
O29          C39   1.293       .  A
O29         Al31   2.069       .  S
O30          C43   1.285       .  A
O30         Al40   2.043       .  S
Al31         O44   1.838       .  S
Al31         O41   1.826       .  S
Al31         O36   1.747       .  S
O32          C39   1.247       .  A
O32         Al40   1.834       .  S
O33          C42   1.239       .  A
O33         Al40   1.830       .  S
O34         Al40   2.062       .  S
O35          C42   1.296       .  A
O36         Al40   1.748       .  S
O37          C38   1.242       .  A
C38          C64   1.477       .  S
C39          C68   1.479       .  S
O41         C292   1.243   1_554  A
C42         C126   1.478       .  S
C43          O44   1.242       .  A
O45         C324   1.294       .  A
O45         Al53   2.021   1_556  S
C46          O56   1.289       .  A
C46          O47   1.246       .  A
O47         Al49   1.834       .  S
O48         C446   1.298       .  A
O48         Al49   2.043   1_565  S
Al49         O57   2.061       .  S
Al49        O455   1.835   1_545  S
Al49        O190   1.754       .  S
C50          O63   1.243       .  A
C50         O444   1.298       .  A
C50          C87   1.479       .  S
O51          C61   1.293       .  A
O51        Al449   2.069   1_545  S
O52          C65   1.285       .  A
O52         Al62   2.042       .  S
Al53         O66   1.838       .  S
Al53        O447   2.069       .  S
Al53        O327   1.826   1_554  S
Al53        O454   1.747   1_554  S
O54          C61   1.247       .  A
O54         Al62   1.835       .  S
O55          C64   1.239       .  A
O55         Al62   1.830       .  S
O56        Al194   2.062       .  S
O57         C196   1.296       .  A
O58         Al62   1.748   1_556  S
O58        Al313   1.754       .  S
O58        Al449   1.747   1_546  S
O59          C60   1.242       .  A
O59        Al445   1.835       .  S
C60         O177   1.294       .  A
C60         C108   1.478       .  S
C61         C112   1.479       .  S
Al62        O320   2.062   1_554  S
O63        Al185   1.826       .  S
C64         O321   1.296   1_554  A
C65         O462   1.242   1_545  A
C65         C468   1.479   1_545  S
O66         C461   1.242       .  A
O67          C82   1.294       .  A
O67        Al471   2.021   1_545  S
C68          O78   1.289       .  A
C68          O69   1.246       .  A
O69         Al71   1.834       .  S
O70          C72   1.298       .  A
O70         Al71   2.043       .  S
Al71         O79   2.061       .  S
Al71        O477   1.835       .  S
Al71         O80   1.754       .  S
C72          O85   1.243       .  A
C72         C461   1.479       .  S
O73          C83   1.293       .  A
O73         Al75   2.069       .  S
O74          C87   1.285       .  A
O74         Al84   2.042       .  S
Al75         O88   1.838       .  S
Al75         O85   1.826       .  S
Al75        O463   2.021       .  S
Al75         O80   1.747       .  S
O76          C83   1.247       .  A
O76         Al84   1.835       .  S
O77          C86   1.239       .  A
O77         Al84   1.830       .  S
O78         Al84   2.062       .  S
O79          C86   1.296       .  A
O80         Al84   1.748       .  S
O81          C82   1.242   1_565  A
O81        Al467   1.835       .  S
C82         C130   1.478       .  S
C83          C90   1.479       .  S
C87          O88   1.242       .  A
O89         C104   1.294       .  A
O89         Al97   2.021       .  S
C90         O100   1.289       .  A
C90          O91   1.246       .  A
O91         Al93   1.834       .  S
O92          C94   1.298   1_455  A
O92         Al93   2.043       .  S
Al93        O101   2.061       .  S
Al93        O895   1.836   1_455  S
Al93        O102   1.754       .  S
C94         O899   1.243   1_655  A
C94         C923   1.479       .  S
O95         C105   1.293       .  A
O95        Al889   2.069   1_455  S
O96         C109   1.285       .  A
O96        Al370   2.043   1_554  S
Al97        O107   1.826       .  S
Al97        O887   2.069       .  S
Al97        O242   1.838       .  S
Al97        O894   1.747       .  S
O98         C105   1.247       .  A
O98        Al106   1.835       .  S
O99         C108   1.239       .  A
O99        Al106   1.830       .  S
O100       Al106   2.062       .  S
O101        C108   1.296       .  A
O102       Al106   1.748       .  S
O102       Al889   1.747   1_455  S
O103        C104   1.242       .  A
O103       Al885   1.836       .  S
C105        C156   1.479       .  S
Al106       O228   2.043       .  S
O107        C886   1.243       .  A
C109        O902   1.242   1_454  A
C109        C908   1.479   1_455  S
O110        C901   1.242   1_556  A
O110       Al361   1.838       .  S
O111        C126   1.294       .  A
O111       Al911   2.021   1_455  S
C112        O122   1.289       .  A
C112        O113   1.246       .  A
O113       Al115   1.834       .  S
O114        C116   1.299       .  A
O114       Al115   2.043       .  S
Al115       O123   2.061       .  S
Al115       O917   1.836       .  S
Al115       O124   1.754       .  S
C116        O129   1.243       .  A
C116        C901   1.479       .  S
O117        C127   1.293       .  A
O117       Al119   2.069       .  S
O118        C131   1.285       .  A
O118       Al128   2.043       .  S
Al119       O132   1.838       .  S
Al119       O129   1.826       .  S
Al119       O903   2.021       .  S
Al119       O124   1.747       .  S
O120        C127   1.247       .  A
O120       Al128   1.835       .  S
O121        C130   1.239       .  A
O121       Al128   1.830       .  S
O122       Al128   2.062       .  S
O123        C130   1.296       .  A
O124       Al128   1.748       .  S
O125        C126   1.242   1_655  A
O125       Al907   1.836       .  S
C131        O132   1.242       .  A
C131        C886   1.479       .  S
O133        C148   1.294       .  A
O133       Al141   2.020       .  S
C134        O144   1.289       .  A
C134        O135   1.246       .  A
C134        C259   1.479       .  S
O135       Al137   1.834       .  S
O136        C138   1.298       .  A
O136       Al137   2.043       .  S
Al137       O145   2.061       .  S
Al137       O147   1.835       .  S
Al137       O146   1.754       .  S
C138        O151   1.243       .  A
C138        C175   1.479       .  S
O139        C149   1.293       .  A
O139       Al141   2.069       .  S
O140        C153   1.285       .  A
O140       Al150   2.043       .  S
Al141       O154   1.838       .  S
Al141       O151   1.826       .  S
Al141       O146   1.747       .  S
O142        C149   1.247       .  A
O142       Al150   1.834       .  S
O143        C152   1.239       .  A
O143       Al150   1.830       .  S
O144       Al150   2.062       .  S
O145        C152   1.296       .  A
O146       Al150   1.748       .  S
O147        C148   1.242       .  A
C148        C218   1.477       .  S
C149        C178   1.479       .  S
C152        C236   1.478       .  S
C153        O154   1.242       .  A
C153        C160   1.479       .  S
O155        C170   1.294       .  A
O155       Al163   2.020       .  S
C156        O166   1.289       .  A
C156        O157   1.246       .  A
O157       Al159   1.834       .  S
O158        C160   1.298       .  A
O158       Al291   2.043       .  S
Al159       O167   2.061       .  S
Al159       O169   1.835       .  S
Al159       O168   1.754       .  S
C160        O305   1.243       .  A
O161        C171   1.293       .  A
O161       Al163   2.069       .  S
O162        C175   1.285       .  A
O162       Al172   2.043       .  S
Al163       O176   1.838       .  S
Al163       O173   1.826       .  S
Al163       O168   1.747       .  S
O164        C171   1.247       .  A
O164       Al172   1.834       .  S
O165        C174   1.239       .  A
O165       Al172   1.830       .  S
O166       Al172   2.062       .  S
O167        C174   1.296       .  A
O168       Al172   1.748       .  S
O169        C170   1.242       .  A
C170        C196   1.477       .  S
C171        C200   1.479       .  S
C174        C258   1.478       .  S
C175        O176   1.242       .  A
O177       Al185   2.021       .  S
C178        O188   1.289       .  A
C178        O179   1.246       .  A
O179       Al181   1.834       .  S
O180        C578   1.298       .  A
O180       Al181   2.043   1_565  S
Al181       O189   2.061       .  S
Al181       O587   1.835   1_545  S
Al181       O322   1.754       .  S
C182        O576   1.298       .  A
C182        O195   1.243       .  A
C182        C219   1.479       .  S
O183        C193   1.293       .  A
O183       Al581   2.069   1_545  S
O184        C197   1.285       .  A
O184       Al194   2.042       .  S
Al185       O579   2.069       .  S
Al185       O198   1.838       .  S
Al185       O586   1.747       .  S
O186        C193   1.247       .  A
O186       Al194   1.835       .  S
O187        C196   1.239       .  A
O187       Al194   1.830       .  S
O188       Al326   2.062       .  S
O189        C328   1.296       .  A
O190       Al581   1.747   1_545  S
O190       Al194   1.748       .  S
O191        C192   1.242       .  A
O191       Al577   1.835       .  S
C192        O309   1.294       .  A
C192        C240   1.478       .  S
C193        C244   1.479       .  S
O195       Al317   1.826       .  S
C197        O594   1.242   1_545  A
C197        C600   1.479   1_545  S
O198        C593   1.242       .  A
O199        C214   1.294       .  A
O199       Al603   2.021   1_545  S
C200        O210   1.289       .  A
C200        O201   1.246       .  A
O201       Al203   1.834       .  S
O202        C204   1.298       .  A
O202       Al203   2.043       .  S
Al203       O211   2.061       .  S
Al203       O609   1.835       .  S
Al203       O212   1.754       .  S
C204        O217   1.243       .  A
C204        C593   1.479       .  S
O205        C215   1.293       .  A
O205       Al207   2.069       .  S
O206        C219   1.285       .  A
O206       Al216   2.042       .  S
Al207       O595   2.021       .  S
Al207       O220   1.838       .  S
Al207       O217   1.826       .  S
Al207       O212   1.747       .  S
O208        C215   1.247       .  A
O208       Al216   1.835       .  S
O209        C218   1.239       .  A
O209       Al216   1.830       .  S
O210       Al216   2.062       .  S
O211        C218   1.296       .  A
O212       Al216   1.748       .  S
O213        C214   1.242   1_565  A
O213       Al599   1.835       .  S
C214        C262   1.478       .  S
C215        C222   1.479       .  S
C219        O220   1.242       .  A
O221        C236   1.294       .  A
O221       Al229   2.021       .  S
C222        O232   1.289       .  A
C222        O223   1.246       .  A
O223       Al225   1.834       .  S
O224        C226   1.298   1_455  A
O224       Al225   2.043       .  S
Al225       O233   2.061       .  S
Al225      O1027   1.836   1_455  S
Al225       O234   1.754       .  S
C226       O1031   1.243   1_655  A
C226       C1055   1.479       .  S
O227        C237   1.293       .  A
O227      Al1021   2.069   1_455  S
O228        C241   1.285       .  A
Al229      O1019   2.069       .  S
Al229       O374   1.838       .  S
Al229       O239   1.826       .  S
Al229      O1026   1.747       .  S
O230        C237   1.247       .  A
O230       Al238   1.835       .  S
O231        C240   1.239       .  A
O231       Al238   1.830       .  S
O232       Al238   2.062       .  S
O233        C240   1.296       .  A
O234      Al1021   1.747   1_455  S
O234       Al238   1.748       .  S
O235        C236   1.242       .  A
O235      Al1017   1.836       .  S
C237        C288   1.479       .  S
Al238       O360   2.043       .  S
O239       C1018   1.243       .  A
C241       O1034   1.242   1_455  A
C241       C1040   1.479   1_455  S
O242       C1033   1.242       .  A
O243        C258   1.294       .  A
O243      Al1043   2.021   1_455  S
C244        O254   1.289       .  A
C244        O245   1.246       .  A
O245       Al247   1.834       .  S
O246        C248   1.299       .  A
O246       Al247   2.043       .  S
Al247       O255   2.061       .  S
Al247      O1049   1.836       .  S
Al247       O256   1.754       .  S
C248        O261   1.243       .  A
C248       C1033   1.479       .  S
O249        C259   1.293       .  A
O249       Al251   2.069       .  S
O250        C263   1.285       .  A
O250       Al260   2.043       .  S
Al251      O1035   2.021       .  S
Al251       O264   1.838       .  S
Al251       O261   1.826       .  S
Al251       O256   1.747       .  S
O252        C259   1.247       .  A
O252       Al260   1.835       .  S
O253        C262   1.239       .  A
O253       Al260   1.830       .  S
O254       Al260   2.062       .  S
O255        C262   1.296       .  A
O256       Al260   1.748       .  S
O257        C258   1.242   1_655  A
O257      Al1039   1.836       .  S
C263        O264   1.242       .  A
C263       C1018   1.479       .  S
O265        C280   1.294       .  A
O265       Al273   2.020       .  S
C266        O276   1.289       .  A
C266        O267   1.246       .  A
C266        C391   1.479       .  S
O267       Al269   1.834       .  S
O268        C270   1.298       .  A
O268       Al269   2.043       .  S
Al269       O277   2.061       .  S
Al269       O279   1.835       .  S
Al269       O278   1.754       .  S
C270        O283   1.243       .  A
C270        C307   1.479       .  S
O271        C281   1.293       .  A
O271       Al273   2.069       .  S
O272        C285   1.285       .  A
O272       Al282   2.043       .  S
Al273       O286   1.838       .  S
Al273       O283   1.826       .  S
Al273       O278   1.747       .  S
O274        C281   1.247       .  A
O274       Al282   1.834       .  S
O275        C284   1.239       .  A
O275       Al282   1.830       .  S
O276       Al282   2.062       .  S
O277        C284   1.296       .  A
O278       Al282   1.748       .  S
O279        C280   1.242       .  A
C280        C350   1.477       .  S
C281        C310   1.479       .  S
C284        C368   1.478       .  S
C285        O286   1.242       .  A
C285        C292   1.479       .  S
O287        C302   1.294       .  A
O287       Al295   2.020       .  S
C288        O298   1.289       .  A
C288        O289   1.246       .  A
O289       Al291   1.834       .  S
O290        C292   1.298       .  A
Al291       O299   2.061       .  S
Al291       O301   1.835       .  S
Al291       O300   1.754       .  S
O293        C303   1.293       .  A
O293       Al295   2.069       .  S
O294        C307   1.285       .  A
O294       Al304   2.043       .  S
Al295       O308   1.838       .  S
Al295       O305   1.826       .  S
Al295       O300   1.747       .  S
O296        C303   1.247       .  A
O296       Al304   1.834       .  S
O297        C306   1.239       .  A
O297       Al304   1.830       .  S
O298       Al304   2.062       .  S
O299        C306   1.296       .  A
O300       Al304   1.748       .  S
O301        C302   1.242       .  A
C302        C328   1.477       .  S
C303        C332   1.479       .  S
C306        C390   1.478       .  S
C307        O308   1.242       .  A
O309       Al317   2.021       .  S
C310        O320   1.289       .  A
C310        O311   1.246       .  A
O311       Al313   1.834       .  S
O312        C710   1.298       .  A
O312       Al313   2.043   1_565  S
Al313       O321   2.061       .  S
Al313       O719   1.835   1_545  S
C314        O708   1.298       .  A
C314        O327   1.243       .  A
C314        C351   1.479       .  S
O315        C325   1.293       .  A
O315       Al713   2.069   1_545  S
O316        C329   1.285       .  A
O316       Al326   2.042       .  S
Al317       O711   2.069       .  S
Al317       O330   1.838       .  S
Al317       O718   1.747       .  S
O318        C325   1.247       .  A
O318       Al326   1.835       .  S
O319        C328   1.239       .  A
O319       Al326   1.830       .  S
O322       Al713   1.747   1_545  S
O322       Al326   1.748       .  S
O323        C324   1.242       .  A
O323       Al709   1.835       .  S
C324        C372   1.478       .  S
C325        C376   1.479       .  S
C329        O726   1.242   1_545  A
C329        C732   1.479   1_545  S
O330        C725   1.242       .  A
O331        C346   1.294       .  A
O331       Al735   2.021   1_545  S
C332        O342   1.289       .  A
C332        O333   1.246       .  A
O333       Al335   1.834       .  S
O334        C336   1.298       .  A
O334       Al335   2.043       .  S
Al335       O343   2.061       .  S
Al335       O741   1.835       .  S
Al335       O344   1.754       .  S
C336        O349   1.243       .  A
C336        C725   1.479       .  S
O337        C347   1.293       .  A
O337       Al339   2.069       .  S
O338        C351   1.285       .  A
O338       Al348   2.042       .  S
Al339       O727   2.021       .  S
Al339       O352   1.838       .  S
Al339       O349   1.826       .  S
Al339       O344   1.747       .  S
O340        C347   1.247       .  A
O340       Al348   1.835       .  S
O341        C350   1.239       .  A
O341       Al348   1.830       .  S
O342       Al348   2.062       .  S
O343        C350   1.296       .  A
O344       Al348   1.748       .  S
O345        C346   1.242   1_565  A
O345       Al731   1.835       .  S
C346        C394   1.478       .  S
C347        C354   1.479       .  S
C351        O352   1.242       .  A
O353        C368   1.294       .  A
O353       Al361   2.021       .  S
C354        O364   1.289       .  A
C354        O355   1.246       .  A
O355       Al357   1.834       .  S
O356        C358   1.298   1_455  A
O356       Al357   2.043       .  S
Al357       O365   2.061       .  S
Al357      O1159   1.836   1_455  S
Al357       O366   1.754       .  S
C358       O1163   1.243   1_655  A
C358       C1187   1.479       .  S
O359        C369   1.293       .  A
O359      Al1153   2.069   1_455  S
O360        C373   1.285       .  A
Al361      O1151   2.069       .  S
Al361       O371   1.826       .  S
Al361      O1158   1.747       .  S
O362        C369   1.247       .  A
O362       Al370   1.835       .  S
O363        C372   1.239       .  A
O363       Al370   1.830       .  S
O364       Al370   2.062       .  S
O365        C372   1.296       .  A
O366      Al1153   1.747   1_455  S
O366       Al370   1.748       .  S
O367        C368   1.242       .  A
O367      Al1149   1.836       .  S
O371       C1150   1.243       .  A
C373       O1166   1.242   1_455  A
C373       C1172   1.479   1_455  S
O374       C1165   1.242       .  A
O375        C390   1.294       .  A
O375      Al1175   2.021   1_455  S
C376        O386   1.289       .  A
C376        O377   1.246       .  A
O377       Al379   1.834       .  S
O378        C380   1.299       .  A
O378       Al379   2.043       .  S
Al379       O387   2.061       .  S
Al379      O1181   1.836       .  S
Al379       O388   1.754       .  S
C380        O393   1.243       .  A
C380       C1165   1.479       .  S
O381        C391   1.293       .  A
O381       Al383   2.069       .  S
O382        C395   1.285       .  A
O382       Al392   2.043       .  S
Al383      O1167   2.021       .  S
Al383       O396   1.838       .  S
Al383       O393   1.826       .  S
Al383       O388   1.747       .  S
O384        C391   1.247       .  A
O384       Al392   1.835       .  S
O385        C394   1.239       .  A
O385       Al392   1.830       .  S
O386       Al392   2.062       .  S
O387        C394   1.296       .  A
O388       Al392   1.748       .  S
O389        C390   1.242   1_655  A
O389      Al1171   1.836       .  S
C395        O396   1.242       .  A
C395       C1150   1.479       .  S
O397        C412   1.294       .  A
O397       Al405   2.020       .  S
C398        O408   1.289       .  A
C398        O399   1.246       .  A
C398        C523   1.479       .  S
O399       Al401   1.834       .  S
O400        C402   1.298       .  A
O400       Al401   2.043       .  S
Al401       O409   2.061       .  S
Al401       O411   1.835       .  S
Al401       O410   1.754       .  S
C402        O415   1.243       .  A
C402        C439   1.479       .  S
O403        C413   1.293       .  A
O403       Al405   2.069       .  S
O404        C417   1.285       .  A
O404       Al414   2.043       .  S
Al405       O418   1.838       .  S
Al405       O415   1.826       .  S
Al405       O410   1.747       .  S
O406        C413   1.247       .  A
O406       Al414   1.834       .  S
O407        C416   1.239       .  A
O407       Al414   1.830       .  S
O408       Al414   2.062       .  S
O409        C416   1.296       .  A
O410       Al414   1.748       .  S
O411        C412   1.242       .  A
C412        C482   1.477       .  S
C413        C442   1.479       .  S
C416        C500   1.478       .  S
C417        O418   1.242       .  A
C417        C424   1.479       .  S
O419        C434   1.294       .  A
O419       Al427   2.020       .  S
C420        O430   1.289       .  A
C420        O421   1.246   1_554  A
C420        C765   1.479   1_554  S
O421       Al423   1.834   1_556  S
O422        C424   1.298       .  A
O422       Al555   2.043       .  S
Al423       O686   2.043   1_554  S
Al423       O431   2.061       .  S
Al423       O433   1.835       .  S
Al423       O432   1.754       .  S
C424        O569   1.243       .  A
O425        C435   1.293       .  A
O425       Al427   2.069       .  S
O426        C439   1.285       .  A
O426       Al436   2.043       .  S
Al427       O440   1.838       .  S
Al427       O437   1.826       .  S
Al427       O432   1.747       .  S
O428        C435   1.247       .  A
O428       Al436   1.834       .  S
O429        C438   1.239       .  A
O429       Al436   1.830       .  S
O430       Al436   2.062       .  S
O431        C438   1.296       .  A
O432       Al436   1.748       .  S
O433        C434   1.242       .  A
C434        C460   1.477       .  S
C435        C464   1.479       .  S
O437        C688   1.243   1_554  A
C438        C522   1.478       .  S
C439        O440   1.242       .  A
O441        C720   1.294       .  A
O441       Al449   2.021   1_556  S
C442        O452   1.289       .  A
C442        O443   1.246       .  A
O443       Al445   1.834       .  S
O444       Al445   2.043       .  S
Al445       O453   2.061       .  S
Al445       O586   1.754       .  S
C446        O459   1.243       .  A
C446        C483   1.479       .  S
O447        C457   1.293       .  A
O448        C461   1.285       .  A
O448       Al458   2.042       .  S
Al449       O462   1.838       .  S
Al449       O723   1.826   1_554  S
O450        C457   1.247       .  A
O450       Al458   1.835       .  S
O451        C460   1.239       .  A
O451       Al458   1.830       .  S
O452       Al590   2.062       .  S
O453        C592   1.296       .  A
O454       Al709   1.754       .  S
O454       Al458   1.748   1_556  S
O455        C456   1.242       .  A
C456        O573   1.294       .  A
C456        C504   1.478       .  S
C457        C508   1.479       .  S
Al458       O716   2.062   1_554  S
O459       Al581   1.826       .  S
C460        O717   1.296   1_554  A
O463        C478   1.294       .  A
C464        O474   1.289       .  A
C464        O465   1.246       .  A
O465       Al467   1.834       .  S
O466        C468   1.298       .  A
O466       Al467   2.043       .  S
Al467       O475   2.061       .  S
Al467       O476   1.754       .  S
C468        O481   1.243       .  A
O469        C479   1.293       .  A
O469       Al471   2.069       .  S
O470        C483   1.285       .  A
O470       Al480   2.042       .  S
Al471       O484   1.838       .  S
Al471       O481   1.826       .  S
Al471       O476   1.747       .  S
O472        C479   1.247       .  A
O472       Al480   1.835       .  S
O473        C482   1.239       .  A
O473       Al480   1.830       .  S
O474       Al480   2.062       .  S
O475        C482   1.296       .  A
O476       Al480   1.748       .  S
O477        C478   1.242       .  A
C478        C526   1.478       .  S
C479        C486   1.479       .  S
C483        O484   1.242       .  A
O485        C500   1.294       .  A
O485       Al493   2.021       .  S
C486        O496   1.289       .  A
C486        O487   1.246       .  A
O487       Al489   1.834       .  S
O488        C490   1.298   1_455  A
O488       Al489   2.043       .  S
Al489       O497   2.061       .  S
Al489      O1291   1.836   1_455  S
Al489       O498   1.754       .  S
C490       O1295   1.243   1_655  A
C490       C1319   1.479       .  S
O491        C501   1.293       .  A
O491      Al1285   2.069   1_455  S
O492        C505   1.285       .  A
O492       Al766   2.043   1_554  S
Al493      O1283   2.069       .  S
Al493       O638   1.838       .  S
Al493       O503   1.826       .  S
Al493      O1290   1.747       .  S
O494        C501   1.247       .  A
O494       Al502   1.835       .  S
O495        C504   1.239       .  A
O495       Al502   1.830       .  S
O496       Al502   2.062       .  S
O497        C504   1.296       .  A
O498      Al1285   1.747   1_455  S
O498       Al502   1.748       .  S
O499        C500   1.242       .  A
O499      Al1281   1.836       .  S
C501        C552   1.479       .  S
Al502       O624   2.043       .  S
O503       C1282   1.243       .  A
C505       O1298   1.242   1_454  A
C505       C1304   1.479   1_455  S
O506       C1297   1.242   1_556  A
O506       Al757   1.838       .  S
O507        C522   1.294       .  A
O507      Al1307   2.021   1_455  S
C508        O518   1.289       .  A
C508        O509   1.246       .  A
O509       Al511   1.834       .  S
O510        C512   1.299       .  A
O510       Al511   2.043       .  S
Al511       O519   2.061       .  S
Al511      O1313   1.836       .  S
Al511       O520   1.754       .  S
C512        O525   1.243       .  A
C512       C1297   1.479       .  S
O513        C523   1.293       .  A
O513       Al515   2.069       .  S
O514        C527   1.285       .  A
O514       Al524   2.043       .  S
Al515      O1299   2.021       .  S
Al515       O528   1.838       .  S
Al515       O525   1.826       .  S
Al515       O520   1.747       .  S
O516        C523   1.247       .  A
O516       Al524   1.835       .  S
O517        C526   1.239       .  A
O517       Al524   1.830       .  S
O518       Al524   2.062       .  S
O519        C526   1.296       .  A
O520       Al524   1.748       .  S
O521        C522   1.242   1_655  A
O521      Al1303   1.836       .  S
C527        O528   1.242       .  A
C527       C1282   1.479       .  S
O529        C544   1.294       .  A
O529       Al537   2.020       .  S
C530        O540   1.289       .  A
C530        O531   1.246       .  A
C530        C655   1.479       .  S
O531       Al533   1.834       .  S
O532        C534   1.298       .  A
O532       Al533   2.043       .  S
Al533       O541   2.061       .  S
Al533       O543   1.835       .  S
Al533       O542   1.754       .  S
C534        O547   1.243       .  A
C534        C571   1.479       .  S
O535        C545   1.293       .  A
O535       Al537   2.069       .  S
O536        C549   1.285       .  A
O536       Al546   2.043       .  S
Al537       O550   1.838       .  S
Al537       O547   1.826       .  S
Al537       O542   1.747       .  S
O538        C545   1.247       .  A
O538       Al546   1.834       .  S
O539        C548   1.239       .  A
O539       Al546   1.830       .  S
O540       Al546   2.062       .  S
O541        C548   1.296       .  A
O542       Al546   1.748       .  S
O543        C544   1.242       .  A
C544        C614   1.477       .  S
C545        C574   1.479       .  S
C548        C632   1.478       .  S
C549        O550   1.242       .  A
C549        C556   1.479       .  S
O551        C566   1.294       .  A
O551       Al559   2.020       .  S
C552        O562   1.289       .  A
C552        O553   1.246       .  A
O553       Al555   1.834       .  S
O554        C556   1.298       .  A
O554       Al687   2.043       .  S
Al555       O563   2.061       .  S
Al555       O565   1.835       .  S
Al555       O564   1.754       .  S
C556        O701   1.243       .  A
O557        C567   1.293       .  A
O557       Al559   2.069       .  S
O558        C571   1.285       .  A
O558       Al568   2.043       .  S
Al559       O572   1.838       .  S
Al559       O569   1.826       .  S
Al559       O564   1.747       .  S
O560        C567   1.247       .  A
O560       Al568   1.834       .  S
O561        C570   1.239       .  A
O561       Al568   1.830       .  S
O562       Al568   2.062       .  S
O563        C570   1.296       .  A
O564       Al568   1.748       .  S
O565        C566   1.242       .  A
C566        C592   1.477       .  S
C567        C596   1.479       .  S
C570        C654   1.478       .  S
C571        O572   1.242       .  A
O573       Al581   2.021       .  S
C574        O584   1.289       .  A
C574        O575   1.246       .  A
O575       Al577   1.834       .  S
O576       Al577   2.043       .  S
Al577       O585   2.061       .  S
Al577       O718   1.754       .  S
C578        O591   1.243       .  A
C578        C615   1.479       .  S
O579        C589   1.293       .  A
O580        C593   1.285       .  A
O580       Al590   2.042       .  S
Al581       O594   1.838       .  S
O582        C589   1.247       .  A
O582       Al590   1.835       .  S
O583        C592   1.239       .  A
O583       Al590   1.830       .  S
O584       Al722   2.062       .  S
O585        C724   1.296       .  A
O586       Al590   1.748       .  S
O587        C588   1.242       .  A
C588        O705   1.294       .  A
C588        C636   1.478       .  S
C589        C640   1.479       .  S
O591       Al713   1.826       .  S
O595        C610   1.294       .  A
C596        O606   1.289       .  A
C596        O597   1.246       .  A
O597       Al599   1.834       .  S
O598        C600   1.298       .  A
O598       Al599   2.043       .  S
Al599       O607   2.061       .  S
Al599       O608   1.754       .  S
C600        O613   1.243       .  A
O601        C611   1.293       .  A
O601       Al603   2.069       .  S
O602        C615   1.285       .  A
O602       Al612   2.042       .  S
Al603       O616   1.838       .  S
Al603       O613   1.826       .  S
Al603       O608   1.747       .  S
O604        C611   1.247       .  A
O604       Al612   1.835       .  S
O605        C614   1.239       .  A
O605       Al612   1.830       .  S
O606       Al612   2.062       .  S
O607        C614   1.296       .  A
O608       Al612   1.748       .  S
O609        C610   1.242       .  A
C610        C658   1.478       .  S
C611        C618   1.479       .  S
C615        O616   1.242       .  A
O617        C632   1.294       .  A
O617       Al625   2.021       .  S
C618        O628   1.289       .  A
C618        O619   1.246       .  A
O619       Al621   1.834       .  S
O620        C622   1.298   1_455  A
O620       Al621   2.043       .  S
Al621       O629   2.061       .  S
Al621      O1423   1.836   1_455  S
Al621       O630   1.754       .  S
C622       O1427   1.243   1_655  A
C622       C1451   1.479       .  S
O623        C633   1.293       .  A
O623      Al1417   2.069   1_455  S
O624        C637   1.285       .  A
Al625      O1415   2.069       .  S
Al625       O770   1.838       .  S
Al625       O635   1.826       .  S
Al625      O1422   1.747       .  S
O626        C633   1.247       .  A
O626       Al634   1.835       .  S
O627        C636   1.239       .  A
O627       Al634   1.830       .  S
O628       Al634   2.062       .  S
O629        C636   1.296       .  A
O630      Al1417   1.747   1_455  S
O630       Al634   1.748       .  S
O631        C632   1.242       .  A
O631      Al1413   1.836       .  S
C633        C684   1.479       .  S
Al634       O756   2.043       .  S
O635       C1414   1.243       .  A
C637       O1430   1.242   1_455  A
C637       C1436   1.479   1_455  S
O638       C1429   1.242       .  A
O639        C654   1.294       .  A
O639      Al1439   2.021   1_455  S
C640        O650   1.289       .  A
C640        O641   1.246       .  A
O641       Al643   1.834       .  S
O642        C644   1.299       .  A
O642       Al643   2.043       .  S
Al643       O651   2.061       .  S
Al643      O1445   1.836       .  S
Al643       O652   1.754       .  S
C644        O657   1.243       .  A
C644       C1429   1.479       .  S
O645        C655   1.293       .  A
O645       Al647   2.069       .  S
O646        C659   1.285       .  A
O646       Al656   2.043       .  S
Al647      O1431   2.021       .  S
Al647       O660   1.838       .  S
Al647       O657   1.826       .  S
Al647       O652   1.747       .  S
O648        C655   1.247       .  A
O648       Al656   1.835       .  S
O649        C658   1.239       .  A
O649       Al656   1.830       .  S
O650       Al656   2.062       .  S
O651        C658   1.296       .  A
O652       Al656   1.748       .  S
O653        C654   1.242   1_655  A
O653      Al1435   1.836       .  S
C659        O660   1.242       .  A
C659       C1414   1.479       .  S
O661        C676   1.294       .  A
O661       Al669   2.020       .  S
C662        O672   1.289       .  A
C662        O663   1.246       .  A
C662        C787   1.479       .  S
O663       Al665   1.834       .  S
O664        C666   1.298       .  A
O664       Al665   2.043       .  S
Al665       O673   2.061       .  S
Al665       O675   1.835       .  S
Al665       O674   1.754       .  S
C666        O679   1.243       .  A
C666        C703   1.479       .  S
O667        C677   1.293       .  A
O667       Al669   2.069       .  S
O668        C681   1.285       .  A
O668       Al678   2.043       .  S
Al669       O682   1.838       .  S
Al669       O679   1.826       .  S
Al669       O674   1.747       .  S
O670        C677   1.247       .  A
O670       Al678   1.834       .  S
O671        C680   1.239       .  A
O671       Al678   1.830       .  S
O672       Al678   2.062       .  S
O673        C680   1.296       .  A
O674       Al678   1.748       .  S
O675        C676   1.242       .  A
C676        C746   1.477       .  S
C677        C706   1.479       .  S
C680        C764   1.478       .  S
C681        O682   1.242       .  A
C681        C688   1.479       .  S
O683        C698   1.294       .  A
O683       Al691   2.020       .  S
C684        O694   1.289       .  A
C684        O685   1.246       .  A
O685       Al687   1.834       .  S
O686        C688   1.298       .  A
Al687       O695   2.061       .  S
Al687       O697   1.835       .  S
Al687       O696   1.754       .  S
O689        C699   1.293       .  A
O689       Al691   2.069       .  S
O690        C703   1.285       .  A
O690       Al700   2.043       .  S
Al691       O704   1.838       .  S
Al691       O701   1.826       .  S
Al691       O696   1.747       .  S
O692        C699   1.247       .  A
O692       Al700   1.834       .  S
O693        C702   1.239       .  A
O693       Al700   1.830       .  S
O694       Al700   2.062       .  S
O695        C702   1.296       .  A
O696       Al700   1.748       .  S
O697        C698   1.242       .  A
C698        C724   1.477       .  S
C699        C728   1.479       .  S
C702        C786   1.478       .  S
C703        O704   1.242       .  A
O705       Al713   2.021       .  S
C706        O716   1.289       .  A
C706        O707   1.246       .  A
O707       Al709   1.834       .  S
O708       Al709   2.043       .  S
Al709       O717   2.061       .  S
C710        O723   1.243       .  A
C710        C747   1.479       .  S
O711        C721   1.293       .  A
O712        C725   1.285       .  A
O712       Al722   2.042       .  S
Al713       O726   1.838       .  S
O714        C721   1.247       .  A
O714       Al722   1.835       .  S
O715        C724   1.239       .  A
O715       Al722   1.830       .  S
O718       Al722   1.748       .  S
O719        C720   1.242       .  A
C720        C768   1.478       .  S
C721        C772   1.479       .  S
O727        C742   1.294       .  A
C728        O738   1.289       .  A
C728        O729   1.246       .  A
O729       Al731   1.834       .  S
O730        C732   1.298       .  A
O730       Al731   2.043       .  S
Al731       O739   2.061       .  S
Al731       O740   1.754       .  S
C732        O745   1.243       .  A
O733        C743   1.293       .  A
O733       Al735   2.069       .  S
O734        C747   1.285       .  A
O734       Al744   2.042       .  S
Al735       O748   1.838       .  S
Al735       O745   1.826       .  S
Al735       O740   1.747       .  S
O736        C743   1.247       .  A
O736       Al744   1.835       .  S
O737        C746   1.239       .  A
O737       Al744   1.830       .  S
O738       Al744   2.062       .  S
O739        C746   1.296       .  A
O740       Al744   1.748       .  S
O741        C742   1.242       .  A
C742        C790   1.478       .  S
C743        C750   1.479       .  S
C747        O748   1.242       .  A
O749        C764   1.294       .  A
O749       Al757   2.021       .  S
C750        O760   1.289       .  A
C750        O751   1.246       .  A
O751       Al753   1.834       .  S
O752        C754   1.298   1_455  A
O752       Al753   2.043       .  S
Al753       O761   2.061       .  S
Al753      O1555   1.836   1_455  S
Al753       O762   1.754       .  S
C754       O1559   1.243   1_655  A
C754       C1583   1.479       .  S
O755        C765   1.293       .  A
O755      Al1549   2.069   1_455  S
O756        C769   1.285       .  A
Al757      O1547   2.069       .  S
Al757       O767   1.826       .  S
Al757      O1554   1.747       .  S
O758        C765   1.247       .  A
O758       Al766   1.835       .  S
O759        C768   1.239       .  A
O759       Al766   1.830       .  S
O760       Al766   2.062       .  S
O761        C768   1.296       .  A
O762      Al1549   1.747   1_455  S
O762       Al766   1.748       .  S
O763        C764   1.242       .  A
O763      Al1545   1.836       .  S
O767       C1546   1.243       .  A
C769       O1562   1.242   1_455  A
C769       C1568   1.479   1_455  S
O770       C1561   1.242       .  A
O771        C786   1.294       .  A
O771      Al1571   2.021   1_455  S
C772        O782   1.289       .  A
C772        O773   1.246       .  A
O773       Al775   1.834       .  S
O774        C776   1.299       .  A
O774       Al775   2.043       .  S
Al775       O783   2.061       .  S
Al775      O1577   1.836       .  S
Al775       O784   1.754       .  S
C776        O789   1.243       .  A
C776       C1561   1.479       .  S
O777        C787   1.293       .  A
O777       Al779   2.069       .  S
O778        C791   1.285       .  A
O778       Al788   2.043       .  S
Al779      O1563   2.021       .  S
Al779       O792   1.838       .  S
Al779       O789   1.826       .  S
Al779       O784   1.747       .  S
O780        C787   1.247       .  A
O780       Al788   1.835       .  S
O781        C790   1.239       .  A
O781       Al788   1.830       .  S
O782       Al788   2.062       .  S
O783        C790   1.296       .  A
O784       Al788   1.748       .  S
O785        C786   1.242   1_655  A
O785      Al1567   1.836       .  S
C791        O792   1.242       .  A
C791       C1546   1.479       .  S
O793        C808   1.294       .  A
O793       Al801   2.020       .  S
C794        O804   1.289       .  A
C794        O795   1.246       .  A
C794        C919   1.479       .  S
O795       Al797   1.834       .  S
O796        C798   1.298       .  A
O796       Al797   2.043       .  S
Al797       O805   2.061       .  S
Al797       O807   1.835       .  S
Al797       O806   1.754       .  S
C798        O811   1.243       .  A
C798        C835   1.479       .  S
O799        C809   1.293       .  A
O799       Al801   2.069       .  S
O800        C813   1.285       .  A
O800       Al810   2.043       .  S
Al801       O814   1.838       .  S
Al801       O811   1.826       .  S
Al801       O806   1.747       .  S
O802        C809   1.247       .  A
O802       Al810   1.834       .  S
O803        C812   1.239       .  A
O803       Al810   1.830       .  S
O804       Al810   2.062       .  S
O805        C812   1.296       .  A
O806       Al810   1.748       .  S
O807        C808   1.242       .  A
C808        C878   1.477       .  S
C809        C838   1.479       .  S
C812        C896   1.478       .  S
C813        O814   1.242       .  A
C813        C820   1.479       .  S
O815        C830   1.294       .  A
O815       Al823   2.020       .  S
C816        O826   1.289       .  A
C816        O817   1.246   1_554  A
C816       C1161   1.479   1_554  S
O817       Al819   1.834   1_556  S
O818        C820   1.298       .  A
O818       Al951   2.043       .  S
Al819      O1082   2.043   1_554  S
Al819       O827   2.061       .  S
Al819       O829   1.835       .  S
Al819       O828   1.754       .  S
C820        O965   1.243       .  A
O821        C831   1.293       .  A
O821       Al823   2.069       .  S
O822        C835   1.285       .  A
O822       Al832   2.043       .  S
Al823       O836   1.838       .  S
Al823       O833   1.826       .  S
Al823       O828   1.747       .  S
O824        C831   1.247       .  A
O824       Al832   1.834       .  S
O825        C834   1.239       .  A
O825       Al832   1.830       .  S
O826       Al832   2.062       .  S
O827        C834   1.296       .  A
O828       Al832   1.748       .  S
O829        C830   1.242       .  A
C830        C856   1.477       .  S
C831        C860   1.479       .  S
O833       C1084   1.243   1_554  A
C834        C918   1.478       .  S
C835        O836   1.242       .  A
O837       C1116   1.294       .  A
O837       Al845   2.021   1_556  S
C838        O848   1.289       .  A
C838        O839   1.246       .  A
O839       Al841   1.834       .  S
O840       C1238   1.298       .  A
O840       Al841   2.043   1_565  S
Al841       O849   2.061       .  S
Al841      O1247   1.835   1_545  S
Al841       O982   1.754       .  S
C842       O1236   1.298       .  A
C842        O855   1.243       .  A
C842        C879   1.479       .  S
O843        C853   1.293       .  A
O843      Al1241   2.069   1_545  S
O844        C857   1.285       .  A
O844       Al854   2.042       .  S
Al845      O1239   2.069       .  S
Al845       O858   1.838       .  S
Al845      O1119   1.826   1_554  S
Al845      O1246   1.747   1_554  S
O846        C853   1.247       .  A
O846       Al854   1.835       .  S
O847        C856   1.239       .  A
O847       Al854   1.830       .  S
O848       Al986   2.062       .  S
O849        C988   1.296       .  A
O850      Al1105   1.754       .  S
O850      Al1241   1.747   1_546  S
O850       Al854   1.748   1_556  S
O851        C852   1.242       .  A
O851      Al1237   1.835       .  S
C852        O969   1.294       .  A
C852        C900   1.478       .  S
C853        C904   1.479       .  S
Al854      O1112   2.062   1_554  S
O855       Al977   1.826       .  S
C856       O1113   1.296   1_554  A
C857       O1254   1.242   1_545  A
C857       C1260   1.479   1_545  S
O858       C1253   1.242       .  A
O859        C874   1.294       .  A
O859      Al1263   2.021   1_545  S
C860        O870   1.289       .  A
C860        O861   1.246       .  A
O861       Al863   1.834       .  S
O862        C864   1.298       .  A
O862       Al863   2.043       .  S
Al863       O871   2.061       .  S
Al863      O1269   1.835       .  S
Al863       O872   1.754       .  S
C864        O877   1.243       .  A
C864       C1253   1.479       .  S
O865        C875   1.293       .  A
O865       Al867   2.069       .  S
O866        C879   1.285       .  A
O866       Al876   2.042       .  S
Al867      O1255   2.021       .  S
Al867       O880   1.838       .  S
Al867       O877   1.826       .  S
Al867       O872   1.747       .  S
O868        C875   1.247       .  A
O868       Al876   1.835       .  S
O869        C878   1.239       .  A
O869       Al876   1.830       .  S
O870       Al876   2.062       .  S
O871        C878   1.296       .  A
O872       Al876   1.748       .  S
O873        C874   1.242   1_565  A
O873      Al1259   1.835       .  S
C874        C922   1.478       .  S
C875        C882   1.479       .  S
C879        O880   1.242       .  A
O881        C896   1.294       .  A
O881       Al889   2.021       .  S
C882        O892   1.289       .  A
C882        O883   1.246       .  A
O883       Al885   1.834       .  S
O884        C886   1.298       .  A
O884       Al885   2.043       .  S
Al885       O893   2.061       .  S
Al885       O894   1.754       .  S
O887        C897   1.293       .  A
O888        C901   1.285       .  A
O888      Al1162   2.043   1_554  S
Al889      O1034   1.838       .  S
Al889       O899   1.826   1_655  S
O890        C897   1.247       .  A
O890       Al898   1.835       .  S
O891        C900   1.239       .  A
O891       Al898   1.830       .  S
O892       Al898   2.062       .  S
O893        C900   1.296       .  A
O894       Al898   1.748       .  S
O895        C896   1.242       .  A
C897        C948   1.479       .  S
Al898      O1020   2.043       .  S
O902      Al1153   1.838       .  S
O903        C918   1.294       .  A
C904        O914   1.289       .  A
C904        O905   1.246       .  A
O905       Al907   1.834       .  S
O906        C908   1.299       .  A
O906       Al907   2.043       .  S
Al907       O915   2.061       .  S
Al907       O916   1.754       .  S
C908        O921   1.243       .  A
O909        C919   1.293       .  A
O909       Al911   2.069       .  S
O910        C923   1.285       .  A
O910       Al920   2.043       .  S
Al911       O924   1.838       .  S
Al911       O921   1.826       .  S
Al911       O916   1.747       .  S
O912        C919   1.247       .  A
O912       Al920   1.835       .  S
O913        C922   1.239       .  A
O913       Al920   1.830       .  S
O914       Al920   2.062       .  S
O915        C922   1.296       .  A
O916       Al920   1.748       .  S
O917        C918   1.242       .  A
C923        O924   1.242       .  A
O925        C940   1.294       .  A
O925       Al933   2.020       .  S
C926        O936   1.289       .  A
C926        O927   1.246       .  A
C926       C1051   1.479       .  S
O927       Al929   1.834       .  S
O928        C930   1.298       .  A
O928       Al929   2.043       .  S
Al929       O937   2.061       .  S
Al929       O939   1.835       .  S
Al929       O938   1.754       .  S
C930        O943   1.243       .  A
C930        C967   1.479       .  S
O931        C941   1.293       .  A
O931       Al933   2.069       .  S
O932        C945   1.285       .  A
O932       Al942   2.043       .  S
Al933       O946   1.838       .  S
Al933       O943   1.826       .  S
Al933       O938   1.747       .  S
O934        C941   1.247       .  A
O934       Al942   1.834       .  S
O935        C944   1.239       .  A
O935       Al942   1.830       .  S
O936       Al942   2.062       .  S
O937        C944   1.296       .  A
O938       Al942   1.748       .  S
O939        C940   1.242       .  A
C940       C1010   1.477       .  S
C941        C970   1.479       .  S
C944       C1028   1.478       .  S
C945        O946   1.242       .  A
C945        C952   1.479       .  S
O947        C962   1.294       .  A
O947       Al955   2.020       .  S
C948        O958   1.289       .  A
C948        O949   1.246       .  A
O949       Al951   1.834       .  S
O950        C952   1.298       .  A
O950      Al1083   2.043       .  S
Al951       O959   2.061       .  S
Al951       O961   1.835       .  S
Al951       O960   1.754       .  S
C952       O1097   1.243       .  A
O953        C963   1.293       .  A
O953       Al955   2.069       .  S
O954        C967   1.285       .  A
O954       Al964   2.043       .  S
Al955       O968   1.838       .  S
Al955       O965   1.826       .  S
Al955       O960   1.747       .  S
O956        C963   1.247       .  A
O956       Al964   1.834       .  S
O957        C966   1.239       .  A
O957       Al964   1.830       .  S
O958       Al964   2.062       .  S
O959        C966   1.296       .  A
O960       Al964   1.748       .  S
O961        C962   1.242       .  A
C962        C988   1.477       .  S
C963        C992   1.479       .  S
C966       C1050   1.478       .  S
C967        O968   1.242       .  A
O969       Al977   2.021       .  S
C970        O980   1.289       .  A
C970        O971   1.246       .  A
O971       Al973   1.834       .  S
O972       C1370   1.298       .  A
O972       Al973   2.043   1_565  S
Al973       O981   2.061       .  S
Al973      O1379   1.835   1_545  S
Al973      O1114   1.754       .  S
C974       O1368   1.298       .  A
C974        O987   1.243       .  A
C974       C1011   1.479       .  S
O975        C985   1.293       .  A
O975      Al1373   2.069   1_545  S
O976        C989   1.285       .  A
O976       Al986   2.042       .  S
Al977      O1371   2.069       .  S
Al977       O990   1.838       .  S
Al977      O1378   1.747       .  S
O978        C985   1.247       .  A
O978       Al986   1.835       .  S
O979        C988   1.239       .  A
O979       Al986   1.830       .  S
O980      Al1118   2.062       .  S
O981       C1120   1.296       .  A
O982      Al1373   1.747   1_545  S
O982       Al986   1.748       .  S
O983        C984   1.242       .  A
O983      Al1369   1.835       .  S
C984       O1101   1.294       .  A
C984       C1032   1.478       .  S
C985       C1036   1.479       .  S
O987      Al1109   1.826       .  S
C989       O1386   1.242   1_545  A
C989       C1392   1.479   1_545  S
O990       C1385   1.242       .  A
O991       C1006   1.294       .  A
O991      Al1395   2.021   1_545  S
C992       O1002   1.289       .  A
C992        O993   1.246       .  A
O993       Al995   1.834       .  S
O994        C996   1.298       .  A
O994       Al995   2.043       .  S
Al995      O1003   2.061       .  S
Al995      O1401   1.835       .  S
Al995      O1004   1.754       .  S
C996       O1009   1.243       .  A
C996       C1385   1.479       .  S
O997       C1007   1.293       .  A
O997       Al999   2.069       .  S
O998       C1011   1.285       .  A
O998      Al1008   2.042       .  S
Al999      O1387   2.021       .  S
Al999      O1012   1.838       .  S
Al999      O1009   1.826       .  S
Al999      O1004   1.747       .  S
O1000      C1007   1.247       .  A
O1000     Al1008   1.835       .  S
O1001      C1010   1.239       .  A
O1001     Al1008   1.830       .  S
O1002     Al1008   2.062       .  S
O1003      C1010   1.296       .  A
O1004     Al1008   1.748       .  S
O1005      C1006   1.242   1_565  A
O1005     Al1391   1.835       .  S
C1006      C1054   1.478       .  S
C1007      C1014   1.479       .  S
C1011      O1012   1.242       .  A
O1013      C1028   1.294       .  A
O1013     Al1021   2.021       .  S
C1014      O1024   1.289       .  A
C1014      O1015   1.246       .  A
O1015     Al1017   1.834       .  S
O1016      C1018   1.298       .  A
O1016     Al1017   2.043       .  S
Al1017     O1025   2.061       .  S
Al1017     O1026   1.754       .  S
O1019      C1029   1.293       .  A
O1020      C1033   1.285       .  A
Al1021     O1166   1.838       .  S
Al1021     O1031   1.826   1_655  S
O1022      C1029   1.247       .  A
O1022     Al1030   1.835       .  S
O1023      C1032   1.239       .  A
O1023     Al1030   1.830       .  S
O1024     Al1030   2.062       .  S
O1025      C1032   1.296       .  A
O1026     Al1030   1.748       .  S
O1027      C1028   1.242       .  A
C1029      C1080   1.479       .  S
Al1030     O1152   2.043       .  S
O1035      C1050   1.294       .  A
C1036      O1046   1.289       .  A
C1036      O1037   1.246       .  A
O1037     Al1039   1.834       .  S
O1038      C1040   1.299       .  A
O1038     Al1039   2.043       .  S
Al1039     O1047   2.061       .  S
Al1039     O1048   1.754       .  S
C1040      O1053   1.243       .  A
O1041      C1051   1.293       .  A
O1041     Al1043   2.069       .  S
O1042      C1055   1.285       .  A
O1042     Al1052   2.043       .  S
Al1043     O1056   1.838       .  S
Al1043     O1053   1.826       .  S
Al1043     O1048   1.747       .  S
O1044      C1051   1.247       .  A
O1044     Al1052   1.835       .  S
O1045      C1054   1.239       .  A
O1045     Al1052   1.830       .  S
O1046     Al1052   2.062       .  S
O1047      C1054   1.296       .  A
O1048     Al1052   1.748       .  S
O1049      C1050   1.242       .  A
C1055      O1056   1.242       .  A
O1057      C1072   1.294       .  A
O1057     Al1065   2.020       .  S
C1058      O1068   1.289       .  A
C1058      O1059   1.246       .  A
C1058      C1183   1.479       .  S
O1059     Al1061   1.834       .  S
O1060      C1062   1.298       .  A
O1060     Al1061   2.043       .  S
Al1061     O1069   2.061       .  S
Al1061     O1071   1.835       .  S
Al1061     O1070   1.754       .  S
C1062      O1075   1.243       .  A
C1062      C1099   1.479       .  S
O1063      C1073   1.293       .  A
O1063     Al1065   2.069       .  S
O1064      C1077   1.285       .  A
O1064     Al1074   2.043       .  S
Al1065     O1078   1.838       .  S
Al1065     O1075   1.826       .  S
Al1065     O1070   1.747       .  S
O1066      C1073   1.247       .  A
O1066     Al1074   1.834       .  S
O1067      C1076   1.239       .  A
O1067     Al1074   1.830       .  S
O1068     Al1074   2.062       .  S
O1069      C1076   1.296       .  A
O1070     Al1074   1.748       .  S
O1071      C1072   1.242       .  A
C1072      C1142   1.477       .  S
C1073      C1102   1.479       .  S
C1076      C1160   1.478       .  S
C1077      O1078   1.242       .  A
C1077      C1084   1.479       .  S
O1079      C1094   1.294       .  A
O1079     Al1087   2.020       .  S
C1080      O1090   1.289       .  A
C1080      O1081   1.246       .  A
O1081     Al1083   1.834       .  S
O1082      C1084   1.298       .  A
Al1083     O1091   2.061       .  S
Al1083     O1093   1.835       .  S
Al1083     O1092   1.754       .  S
O1085      C1095   1.293       .  A
O1085     Al1087   2.069       .  S
O1086      C1099   1.285       .  A
O1086     Al1096   2.043       .  S
Al1087     O1100   1.838       .  S
Al1087     O1097   1.826       .  S
Al1087     O1092   1.747       .  S
O1088      C1095   1.247       .  A
O1088     Al1096   1.834       .  S
O1089      C1098   1.239       .  A
O1089     Al1096   1.830       .  S
O1090     Al1096   2.062       .  S
O1091      C1098   1.296       .  A
O1092     Al1096   1.748       .  S
O1093      C1094   1.242       .  A
C1094      C1120   1.477       .  S
C1095      C1124   1.479       .  S
C1098      C1182   1.478       .  S
C1099      O1100   1.242       .  A
O1101     Al1109   2.021       .  S
C1102      O1112   1.289       .  A
C1102      O1103   1.246       .  A
O1103     Al1105   1.834       .  S
O1104      C1502   1.298       .  A
O1104     Al1105   2.043   1_565  S
Al1105     O1113   2.061       .  S
Al1105     O1511   1.835   1_545  S
C1106      O1500   1.298       .  A
C1106      O1119   1.243       .  A
C1106      C1143   1.479       .  S
O1107      C1117   1.293       .  A
O1107     Al1505   2.069   1_545  S
O1108      C1121   1.285       .  A
O1108     Al1118   2.042       .  S
Al1109     O1503   2.069       .  S
Al1109     O1122   1.838       .  S
Al1109     O1510   1.747       .  S
O1110      C1117   1.247       .  A
O1110     Al1118   1.835       .  S
O1111      C1120   1.239       .  A
O1111     Al1118   1.830       .  S
O1114     Al1505   1.747   1_545  S
O1114     Al1118   1.748       .  S
O1115      C1116   1.242       .  A
O1115     Al1501   1.835       .  S
C1116      C1164   1.478       .  S
C1117      C1168   1.479       .  S
C1121      O1518   1.242   1_545  A
C1121      C1524   1.479   1_545  S
O1122      C1517   1.242       .  A
O1123      C1138   1.294       .  A
O1123     Al1527   2.021   1_545  S
C1124      O1134   1.289       .  A
C1124      O1125   1.246       .  A
O1125     Al1127   1.834       .  S
O1126      C1128   1.298       .  A
O1126     Al1127   2.043       .  S
Al1127     O1135   2.061       .  S
Al1127     O1533   1.835       .  S
Al1127     O1136   1.754       .  S
C1128      O1141   1.243       .  A
C1128      C1517   1.479       .  S
O1129      C1139   1.293       .  A
O1129     Al1131   2.069       .  S
O1130      C1143   1.285       .  A
O1130     Al1140   2.042       .  S
Al1131     O1519   2.021       .  S
Al1131     O1144   1.838       .  S
Al1131     O1141   1.826       .  S
Al1131     O1136   1.747       .  S
O1132      C1139   1.247       .  A
O1132     Al1140   1.835       .  S
O1133      C1142   1.239       .  A
O1133     Al1140   1.830       .  S
O1134     Al1140   2.062       .  S
O1135      C1142   1.296       .  A
O1136     Al1140   1.748       .  S
O1137      C1138   1.242   1_565  A
O1137     Al1523   1.835       .  S
C1138      C1186   1.478       .  S
C1139      C1146   1.479       .  S
C1143      O1144   1.242       .  A
O1145      C1160   1.294       .  A
O1145     Al1153   2.021       .  S
C1146      O1156   1.289       .  A
C1146      O1147   1.246       .  A
O1147     Al1149   1.834       .  S
O1148      C1150   1.298       .  A
O1148     Al1149   2.043       .  S
Al1149     O1157   2.061       .  S
Al1149     O1158   1.754       .  S
O1151      C1161   1.293       .  A
O1152      C1165   1.285       .  A
Al1153     O1163   1.826   1_655  S
O1154      C1161   1.247       .  A
O1154     Al1162   1.835       .  S
O1155      C1164   1.239       .  A
O1155     Al1162   1.830       .  S
O1156     Al1162   2.062       .  S
O1157      C1164   1.296       .  A
O1158     Al1162   1.748       .  S
O1159      C1160   1.242       .  A
O1167      C1182   1.294       .  A
C1168      O1178   1.289       .  A
C1168      O1169   1.246       .  A
O1169     Al1171   1.834       .  S
O1170      C1172   1.299       .  A
O1170     Al1171   2.043       .  S
Al1171     O1179   2.061       .  S
Al1171     O1180   1.754       .  S
C1172      O1185   1.243       .  A
O1173      C1183   1.293       .  A
O1173     Al1175   2.069       .  S
O1174      C1187   1.285       .  A
O1174     Al1184   2.043       .  S
Al1175     O1188   1.838       .  S
Al1175     O1185   1.826       .  S
Al1175     O1180   1.747       .  S
O1176      C1183   1.247       .  A
O1176     Al1184   1.835       .  S
O1177      C1186   1.239       .  A
O1177     Al1184   1.830       .  S
O1178     Al1184   2.062       .  S
O1179      C1186   1.296       .  A
O1180     Al1184   1.748       .  S
O1181      C1182   1.242       .  A
C1187      O1188   1.242       .  A
O1189      C1204   1.294       .  A
O1189     Al1197   2.020       .  S
C1190      O1200   1.289       .  A
C1190      O1191   1.246       .  A
C1190      C1315   1.479       .  S
O1191     Al1193   1.834       .  S
O1192      C1194   1.298       .  A
O1192     Al1193   2.043       .  S
Al1193     O1201   2.061       .  S
Al1193     O1203   1.835       .  S
Al1193     O1202   1.754       .  S
C1194      O1207   1.243       .  A
C1194      C1231   1.479       .  S
O1195      C1205   1.293       .  A
O1195     Al1197   2.069       .  S
O1196      C1209   1.285       .  A
O1196     Al1206   2.043       .  S
Al1197     O1210   1.838       .  S
Al1197     O1207   1.826       .  S
Al1197     O1202   1.747       .  S
O1198      C1205   1.247       .  A
O1198     Al1206   1.834       .  S
O1199      C1208   1.239       .  A
O1199     Al1206   1.830       .  S
O1200     Al1206   2.062       .  S
O1201      C1208   1.296       .  A
O1202     Al1206   1.748       .  S
O1203      C1204   1.242       .  A
C1204      C1274   1.477       .  S
C1205      C1234   1.479       .  S
C1208      C1292   1.478       .  S
C1209      O1210   1.242       .  A
C1209      C1216   1.479       .  S
O1211      C1226   1.294       .  A
O1211     Al1219   2.020       .  S
C1212      O1222   1.289       .  A
C1212      O1213   1.246   1_554  A
C1212      C1557   1.479   1_554  S
O1213     Al1215   1.834   1_556  S
O1214      C1216   1.298       .  A
O1214     Al1347   2.043       .  S
Al1215     O1478   2.043   1_554  S
Al1215     O1223   2.061       .  S
Al1215     O1225   1.835       .  S
Al1215     O1224   1.754       .  S
C1216      O1361   1.243       .  A
O1217      C1227   1.293       .  A
O1217     Al1219   2.069       .  S
O1218      C1231   1.285       .  A
O1218     Al1228   2.043       .  S
Al1219     O1232   1.838       .  S
Al1219     O1229   1.826       .  S
Al1219     O1224   1.747       .  S
O1220      C1227   1.247       .  A
O1220     Al1228   1.834       .  S
O1221      C1230   1.239       .  A
O1221     Al1228   1.830       .  S
O1222     Al1228   2.062       .  S
O1223      C1230   1.296       .  A
O1224     Al1228   1.748       .  S
O1225      C1226   1.242       .  A
C1226      C1252   1.477       .  S
C1227      C1256   1.479       .  S
O1229      C1480   1.243   1_554  A
C1230      C1314   1.478       .  S
C1231      O1232   1.242       .  A
O1233      C1512   1.294       .  A
O1233     Al1241   2.021   1_556  S
C1234      O1244   1.289       .  A
C1234      O1235   1.246       .  A
O1235     Al1237   1.834       .  S
O1236     Al1237   2.043       .  S
Al1237     O1245   2.061       .  S
Al1237     O1378   1.754       .  S
C1238      O1251   1.243       .  A
C1238      C1275   1.479       .  S
O1239      C1249   1.293       .  A
O1240      C1253   1.285       .  A
O1240     Al1250   2.042       .  S
Al1241     O1254   1.838       .  S
Al1241     O1515   1.826   1_554  S
O1242      C1249   1.247       .  A
O1242     Al1250   1.835       .  S
O1243      C1252   1.239       .  A
O1243     Al1250   1.830       .  S
O1244     Al1382   2.062       .  S
O1245      C1384   1.296       .  A
O1246     Al1501   1.754       .  S
O1246     Al1250   1.748   1_556  S
O1247      C1248   1.242       .  A
C1248      O1365   1.294       .  A
C1248      C1296   1.478       .  S
C1249      C1300   1.479       .  S
Al1250     O1508   2.062   1_554  S
O1251     Al1373   1.826       .  S
C1252      O1509   1.296   1_554  A
O1255      C1270   1.294       .  A
C1256      O1266   1.289       .  A
C1256      O1257   1.246       .  A
O1257     Al1259   1.834       .  S
O1258      C1260   1.298       .  A
O1258     Al1259   2.043       .  S
Al1259     O1267   2.061       .  S
Al1259     O1268   1.754       .  S
C1260      O1273   1.243       .  A
O1261      C1271   1.293       .  A
O1261     Al1263   2.069       .  S
O1262      C1275   1.285       .  A
O1262     Al1272   2.042       .  S
Al1263     O1276   1.838       .  S
Al1263     O1273   1.826       .  S
Al1263     O1268   1.747       .  S
O1264      C1271   1.247       .  A
O1264     Al1272   1.835       .  S
O1265      C1274   1.239       .  A
O1265     Al1272   1.830       .  S
O1266     Al1272   2.062       .  S
O1267      C1274   1.296       .  A
O1268     Al1272   1.748       .  S
O1269      C1270   1.242       .  A
C1270      C1318   1.478       .  S
C1271      C1278   1.479       .  S
C1275      O1276   1.242       .  A
O1277      C1292   1.294       .  A
O1277     Al1285   2.021       .  S
C1278      O1288   1.289       .  A
C1278      O1279   1.246       .  A
O1279     Al1281   1.834       .  S
O1280      C1282   1.298       .  A
O1280     Al1281   2.043       .  S
Al1281     O1289   2.061       .  S
Al1281     O1290   1.754       .  S
O1283      C1293   1.293       .  A
O1284      C1297   1.285       .  A
O1284     Al1558   2.043   1_554  S
Al1285     O1430   1.838       .  S
Al1285     O1295   1.826   1_655  S
O1286      C1293   1.247       .  A
O1286     Al1294   1.835       .  S
O1287      C1296   1.239       .  A
O1287     Al1294   1.830       .  S
O1288     Al1294   2.062       .  S
O1289      C1296   1.296       .  A
O1290     Al1294   1.748       .  S
O1291      C1292   1.242       .  A
C1293      C1344   1.479       .  S
Al1294     O1416   2.043       .  S
O1298     Al1549   1.838       .  S
O1299      C1314   1.294       .  A
C1300      O1310   1.289       .  A
C1300      O1301   1.246       .  A
O1301     Al1303   1.834       .  S
O1302      C1304   1.299       .  A
O1302     Al1303   2.043       .  S
Al1303     O1311   2.061       .  S
Al1303     O1312   1.754       .  S
C1304      O1317   1.243       .  A
O1305      C1315   1.293       .  A
O1305     Al1307   2.069       .  S
O1306      C1319   1.285       .  A
O1306     Al1316   2.043       .  S
Al1307     O1320   1.838       .  S
Al1307     O1317   1.826       .  S
Al1307     O1312   1.747       .  S
O1308      C1315   1.247       .  A
O1308     Al1316   1.835       .  S
O1309      C1318   1.239       .  A
O1309     Al1316   1.830       .  S
O1310     Al1316   2.062       .  S
O1311      C1318   1.296       .  A
O1312     Al1316   1.748       .  S
O1313      C1314   1.242       .  A
C1319      O1320   1.242       .  A
O1321      C1336   1.294       .  A
O1321     Al1329   2.020       .  S
C1322      O1332   1.289       .  A
C1322      O1323   1.246       .  A
C1322      C1447   1.479       .  S
O1323     Al1325   1.834       .  S
O1324      C1326   1.298       .  A
O1324     Al1325   2.043       .  S
Al1325     O1333   2.061       .  S
Al1325     O1335   1.835       .  S
Al1325     O1334   1.754       .  S
C1326      O1339   1.243       .  A
C1326      C1363   1.479       .  S
O1327      C1337   1.293       .  A
O1327     Al1329   2.069       .  S
O1328      C1341   1.285       .  A
O1328     Al1338   2.043       .  S
Al1329     O1342   1.838       .  S
Al1329     O1339   1.826       .  S
Al1329     O1334   1.747       .  S
O1330      C1337   1.247       .  A
O1330     Al1338   1.834       .  S
O1331      C1340   1.239       .  A
O1331     Al1338   1.830       .  S
O1332     Al1338   2.062       .  S
O1333      C1340   1.296       .  A
O1334     Al1338   1.748       .  S
O1335      C1336   1.242       .  A
C1336      C1406   1.477       .  S
C1337      C1366   1.479       .  S
C1340      C1424   1.478       .  S
C1341      O1342   1.242       .  A
C1341      C1348   1.479       .  S
O1343      C1358   1.294       .  A
O1343     Al1351   2.020       .  S
C1344      O1354   1.289       .  A
C1344      O1345   1.246       .  A
O1345     Al1347   1.834       .  S
O1346      C1348   1.298       .  A
O1346     Al1479   2.043       .  S
Al1347     O1355   2.061       .  S
Al1347     O1357   1.835       .  S
Al1347     O1356   1.754       .  S
C1348      O1493   1.243       .  A
O1349      C1359   1.293       .  A
O1349     Al1351   2.069       .  S
O1350      C1363   1.285       .  A
O1350     Al1360   2.043       .  S
Al1351     O1364   1.838       .  S
Al1351     O1361   1.826       .  S
Al1351     O1356   1.747       .  S
O1352      C1359   1.247       .  A
O1352     Al1360   1.834       .  S
O1353      C1362   1.239       .  A
O1353     Al1360   1.830       .  S
O1354     Al1360   2.062       .  S
O1355      C1362   1.296       .  A
O1356     Al1360   1.748       .  S
O1357      C1358   1.242       .  A
C1358      C1384   1.477       .  S
C1359      C1388   1.479       .  S
C1362      C1446   1.478       .  S
C1363      O1364   1.242       .  A
O1365     Al1373   2.021       .  S
C1366      O1376   1.289       .  A
C1366      O1367   1.246       .  A
O1367     Al1369   1.834       .  S
O1368     Al1369   2.043       .  S
Al1369     O1377   2.061       .  S
Al1369     O1510   1.754       .  S
C1370      O1383   1.243       .  A
C1370      C1407   1.479       .  S
O1371      C1381   1.293       .  A
O1372      C1385   1.285       .  A
O1372     Al1382   2.042       .  S
Al1373     O1386   1.838       .  S
O1374      C1381   1.247       .  A
O1374     Al1382   1.835       .  S
O1375      C1384   1.239       .  A
O1375     Al1382   1.830       .  S
O1376     Al1514   2.062       .  S
O1377      C1516   1.296       .  A
O1378     Al1382   1.748       .  S
O1379      C1380   1.242       .  A
C1380      O1497   1.294       .  A
C1380      C1428   1.478       .  S
C1381      C1432   1.479       .  S
O1383     Al1505   1.826       .  S
O1387      C1402   1.294       .  A
C1388      O1398   1.289       .  A
C1388      O1389   1.246       .  A
O1389     Al1391   1.834       .  S
O1390      C1392   1.298       .  A
O1390     Al1391   2.043       .  S
Al1391     O1399   2.061       .  S
Al1391     O1400   1.754       .  S
C1392      O1405   1.243       .  A
O1393      C1403   1.293       .  A
O1393     Al1395   2.069       .  S
O1394      C1407   1.285       .  A
O1394     Al1404   2.042       .  S
Al1395     O1408   1.838       .  S
Al1395     O1405   1.826       .  S
Al1395     O1400   1.747       .  S
O1396      C1403   1.247       .  A
O1396     Al1404   1.835       .  S
O1397      C1406   1.239       .  A
O1397     Al1404   1.830       .  S
O1398     Al1404   2.062       .  S
O1399      C1406   1.296       .  A
O1400     Al1404   1.748       .  S
O1401      C1402   1.242       .  A
C1402      C1450   1.478       .  S
C1403      C1410   1.479       .  S
C1407      O1408   1.242       .  A
O1409      C1424   1.294       .  A
O1409     Al1417   2.021       .  S
C1410      O1420   1.289       .  A
C1410      O1411   1.246       .  A
O1411     Al1413   1.834       .  S
O1412      C1414   1.298       .  A
O1412     Al1413   2.043       .  S
Al1413     O1421   2.061       .  S
Al1413     O1422   1.754       .  S
O1415      C1425   1.293       .  A
O1416      C1429   1.285       .  A
Al1417     O1562   1.838       .  S
Al1417     O1427   1.826   1_655  S
O1418      C1425   1.247       .  A
O1418     Al1426   1.835       .  S
O1419      C1428   1.239       .  A
O1419     Al1426   1.830       .  S
O1420     Al1426   2.062       .  S
O1421      C1428   1.296       .  A
O1422     Al1426   1.748       .  S
O1423      C1424   1.242       .  A
C1425      C1476   1.479       .  S
Al1426     O1548   2.043       .  S
O1431      C1446   1.294       .  A
C1432      O1442   1.289       .  A
C1432      O1433   1.246       .  A
O1433     Al1435   1.834       .  S
O1434      C1436   1.299       .  A
O1434     Al1435   2.043       .  S
Al1435     O1443   2.061       .  S
Al1435     O1444   1.754       .  S
C1436      O1449   1.243       .  A
O1437      C1447   1.293       .  A
O1437     Al1439   2.069       .  S
O1438      C1451   1.285       .  A
O1438     Al1448   2.043       .  S
Al1439     O1452   1.838       .  S
Al1439     O1449   1.826       .  S
Al1439     O1444   1.747       .  S
O1440      C1447   1.247       .  A
O1440     Al1448   1.835       .  S
O1441      C1450   1.239       .  A
O1441     Al1448   1.830       .  S
O1442     Al1448   2.062       .  S
O1443      C1450   1.296       .  A
O1444     Al1448   1.748       .  S
O1445      C1446   1.242       .  A
C1451      O1452   1.242       .  A
O1453      C1468   1.294       .  A
O1453     Al1461   2.020       .  S
C1454      O1464   1.289       .  A
C1454      O1455   1.246       .  A
C1454      C1579   1.479       .  S
O1455     Al1457   1.834       .  S
O1456      C1458   1.298       .  A
O1456     Al1457   2.043       .  S
Al1457     O1465   2.061       .  S
Al1457     O1467   1.835       .  S
Al1457     O1466   1.754       .  S
C1458      O1471   1.243       .  A
C1458      C1495   1.479       .  S
O1459      C1469   1.293       .  A
O1459     Al1461   2.069       .  S
O1460      C1473   1.285       .  A
O1460     Al1470   2.043       .  S
Al1461     O1474   1.838       .  S
Al1461     O1471   1.826       .  S
Al1461     O1466   1.747       .  S
O1462      C1469   1.247       .  A
O1462     Al1470   1.834       .  S
O1463      C1472   1.239       .  A
O1463     Al1470   1.830       .  S
O1464     Al1470   2.062       .  S
O1465      C1472   1.296       .  A
O1466     Al1470   1.748       .  S
O1467      C1468   1.242       .  A
C1468      C1538   1.477       .  S
C1469      C1498   1.479       .  S
C1472      C1556   1.478       .  S
C1473      O1474   1.242       .  A
C1473      C1480   1.479       .  S
O1475      C1490   1.294       .  A
O1475     Al1483   2.020       .  S
C1476      O1486   1.289       .  A
C1476      O1477   1.246       .  A
O1477     Al1479   1.834       .  S
O1478      C1480   1.298       .  A
Al1479     O1487   2.061       .  S
Al1479     O1489   1.835       .  S
Al1479     O1488   1.754       .  S
O1481      C1491   1.293       .  A
O1481     Al1483   2.069       .  S
O1482      C1495   1.285       .  A
O1482     Al1492   2.043       .  S
Al1483     O1496   1.838       .  S
Al1483     O1493   1.826       .  S
Al1483     O1488   1.747       .  S
O1484      C1491   1.247       .  A
O1484     Al1492   1.834       .  S
O1485      C1494   1.239       .  A
O1485     Al1492   1.830       .  S
O1486     Al1492   2.062       .  S
O1487      C1494   1.296       .  A
O1488     Al1492   1.748       .  S
O1489      C1490   1.242       .  A
C1490      C1516   1.477       .  S
C1491      C1520   1.479       .  S
C1494      C1578   1.478       .  S
C1495      O1496   1.242       .  A
O1497     Al1505   2.021       .  S
C1498      O1508   1.289       .  A
C1498      O1499   1.246       .  A
O1499     Al1501   1.834       .  S
O1500     Al1501   2.043       .  S
Al1501     O1509   2.061       .  S
C1502      O1515   1.243       .  A
C1502      C1539   1.479       .  S
O1503      C1513   1.293       .  A
O1504      C1517   1.285       .  A
O1504     Al1514   2.042       .  S
Al1505     O1518   1.838       .  S
O1506      C1513   1.247       .  A
O1506     Al1514   1.835       .  S
O1507      C1516   1.239       .  A
O1507     Al1514   1.830       .  S
O1510     Al1514   1.748       .  S
O1511      C1512   1.242       .  A
C1512      C1560   1.478       .  S
C1513      C1564   1.479       .  S
O1519      C1534   1.294       .  A
C1520      O1530   1.289       .  A
C1520      O1521   1.246       .  A
O1521     Al1523   1.834       .  S
O1522      C1524   1.298       .  A
O1522     Al1523   2.043       .  S
Al1523     O1531   2.061       .  S
Al1523     O1532   1.754       .  S
C1524      O1537   1.243       .  A
O1525      C1535   1.293       .  A
O1525     Al1527   2.069       .  S
O1526      C1539   1.285       .  A
O1526     Al1536   2.042       .  S
Al1527     O1540   1.838       .  S
Al1527     O1537   1.826       .  S
Al1527     O1532   1.747       .  S
O1528      C1535   1.247       .  A
O1528     Al1536   1.835       .  S
O1529      C1538   1.239       .  A
O1529     Al1536   1.830       .  S
O1530     Al1536   2.062       .  S
O1531      C1538   1.296       .  A
O1532     Al1536   1.748       .  S
O1533      C1534   1.242       .  A
C1534      C1582   1.478       .  S
C1535      C1542   1.479       .  S
C1539      O1540   1.242       .  A
O1541      C1556   1.294       .  A
O1541     Al1549   2.021       .  S
C1542      O1552   1.289       .  A
C1542      O1543   1.246       .  A
O1543     Al1545   1.834       .  S
O1544      C1546   1.298       .  A
O1544     Al1545   2.043       .  S
Al1545     O1553   2.061       .  S
Al1545     O1554   1.754       .  S
O1547      C1557   1.293       .  A
O1548      C1561   1.285       .  A
Al1549     O1559   1.826   1_655  S
O1550      C1557   1.247       .  A
O1550     Al1558   1.835       .  S
O1551      C1560   1.239       .  A
O1551     Al1558   1.830       .  S
O1552     Al1558   2.062       .  S
O1553      C1560   1.296       .  A
O1554     Al1558   1.748       .  S
O1555      C1556   1.242       .  A
O1563      C1578   1.294       .  A
C1564      O1574   1.289       .  A
C1564      O1565   1.246       .  A
O1565     Al1567   1.834       .  S
O1566      C1568   1.299       .  A
O1566     Al1567   2.043       .  S
Al1567     O1575   2.061       .  S
Al1567     O1576   1.754       .  S
C1568      O1581   1.243       .  A
O1569      C1579   1.293       .  A
O1569     Al1571   2.069       .  S
O1570      C1583   1.285       .  A
O1570     Al1580   2.043       .  S
Al1571     O1584   1.838       .  S
Al1571     O1581   1.826       .  S
Al1571     O1576   1.747       .  S
O1572      C1579   1.247       .  A
O1572     Al1580   1.835       .  S
O1573      C1582   1.239       .  A
O1573     Al1580   1.830       .  S
O1574     Al1580   2.062       .  S
O1575      C1582   1.296       .  A
O1576     Al1580   1.748       .  S
O1577      C1578   1.242       .  A
C1583      O1584   1.242       .  A
