geometry optimzed in LAMMPS
_audit_creation_date              2020-12-01 
_audit_creation_method            'lammps2cif' 
_symmetry_space_group_name_H-M    'P1' 
_symmetry_Int_Tables_number       1 
_symmetry_cell_setting            triclinic 
loop_ 
_symmetry_equiv_pos_as_xyz 
  x,y,z 
_cell_length_a                    29.47455265 
_cell_length_b                    27.683346374738203 
_cell_length_c                    54.46249019712119 
_cell_angle_alpha                 90.31132186813163 
_cell_angle_beta                  89.77226365604372 
_cell_angle_gamma                 90.0246632247687 
loop_ 
_atom_site_label 
_atom_site_type_symbol 
_atom_site_fract_x 
_atom_site_fract_y 
_atom_site_fract_z 
_atom_site_charge 
N1          N  0.06935851  0.01553891  0.49653937    -0.35200
N2          N  0.48051355  0.49033192  0.45951014    -0.55800
N3          N  0.41114351  0.49930899  0.49822233    -0.35200
N4          N  0.49674181  0.03181563  0.52541454    -0.55800
C5          C  0.07816533  0.50175908  0.47965205     0.28400
C6          C  0.09746606  0.02231226  0.51577423     0.28400
C7          C  0.38805588  0.47460430  0.48069891     0.28400
C8          C  0.40229684  0.00251635  0.51663601     0.28400
C9          C  0.01848413  0.48546816  0.44767567     0.37000
C10         C  0.44301200  0.48228616  0.44576894     0.37000
C11         C  0.03960999  0.05315611  0.54451627     0.37000
C12         C  0.46067044  0.04927731  0.53790193     0.37000
C13         C  0.12295871  0.50692021  0.48723276    -0.20500
C14         C  0.14137579  0.01015651  0.50913766    -0.20500
C15         C  0.35246052  0.44975501  0.49168220    -0.20500
C16         C  0.36700701  0.96956312  0.51519550    -0.20500
C17         C  0.00506953  0.48070177  0.42339429    -0.21500
C18         C  0.45555848  0.47771136  0.42126409    -0.21500
C19         C  0.02594477  0.08745602  0.56159851    -0.21500
C20         C  0.47397160  0.08566874  0.55389432    -0.21500
C21         C  0.06447313  0.48738726  0.45568567    -0.16900
C22         C  0.08479644  0.04218111  0.53855813    -0.16900
C23         C  0.41805541  0.02652726  0.53803338    -0.16900
C24         C  0.39860550  0.47318384  0.45515727    -0.16900
H25         H  0.15361698  0.50237621  0.47651853     0.16000
H26         H  0.17168938  0.01243084  0.52022898     0.16000
H27         H  0.32850528  0.42561107  0.48295724     0.16000
H28         H  0.34682642  0.95548091  0.53016492     0.16000
H29         H  0.02631997  0.47915894  0.40718487     0.14300
H30         H  0.43386761  0.47064600  0.40567249     0.14300
H31         H  0.04708887  0.11312671  0.57130495     0.14300
H32         H  0.45282299  0.10556872  0.56670440     0.14300
H33         H  0.03567854  0.02642218  0.49559388     0.27600
H34         H  0.43714340  0.52404423  0.49512555     0.27600
N35         N  0.05876221  0.25942000  0.50421601    -0.35200
N36         N  0.48634398  0.25920157  0.54242484    -0.55800
N37         N  0.41685401  0.26951523  0.50473417    -0.35200
N38         N  0.48600976  0.28148553  0.46803603    -0.55800
C39         C  0.08599656  0.26108704  0.52425234     0.28400
C40         C  0.08322175  0.27590692  0.48485831     0.28400
C41         C  0.39217027  0.27197445  0.52566162     0.28400
C42         C  0.39249875  0.29120034  0.48687109     0.28400
C43         C  0.02812321  0.24025889  0.55574942     0.37000
C44         C  0.45003390  0.24061872  0.55421926     0.37000
C45         C  0.02191904  0.27786191  0.45325830     0.37000
C46         C  0.44937438  0.28381986  0.45327474     0.37000
C47         C  0.12839901  0.27821642  0.51743231    -0.20500
C48         C  0.12668130  0.28748988  0.49262964    -0.20500
C49         C  0.35135497  0.29497544  0.52117053    -0.20500
C50         C  0.35166198  0.30749000  0.49668732    -0.20500
C51         C  0.01421792  0.21684386  0.57691560    -0.21500
C52         C  0.46378673  0.21328207  0.57412007    -0.21500
C53         C  0.00703963  0.28266637  0.42927627    -0.21500
C54         C  0.46303536  0.28398490  0.42887648    -0.21500
C55         C  0.07386250  0.24564934  0.54827126    -0.16900
C56         C  0.06784451  0.28020826  0.46029905    -0.16900
C57         C  0.40496274  0.29362930  0.46172895    -0.16900
C58         C  0.40464456  0.25054738  0.54811544    -0.16900
H59         H  0.15753757  0.28386922  0.52912460     0.16000
H60         H  0.15434622  0.30134932  0.48158996     0.16000
H61         H  0.32417636  0.30176657  0.53415760     0.16000
H62         H  0.32445588  0.32559435  0.48713725     0.16000
H63         H  0.03502708  0.19835114  0.59021268     0.14300
H64         H  0.44271090  0.19380236  0.58703109     0.14300
H65         H  0.02744085  0.28445153  0.41273750     0.14300
H66         H  0.44228169  0.28790635  0.41269811     0.14300
H67         H  0.02661593  0.24403529  0.50341299     0.27600
H68         H  0.44619681  0.24909864  0.50241555     0.27600
O69         O  0.33308528  0.35633926  0.39993356    -0.78700
O70         O  0.15094163  0.34306628  0.34740011    -0.78800
O71         O  0.19261268  0.28893609  0.40547237    -0.78800
O72         O  0.28017627  0.34720564  0.31738506    -0.78700
O73         O  0.13549419  0.33741356  0.39781562    -0.78800
O74         O  0.31121132  0.33026039  0.35320611    -0.78700
O75         O  0.21550289  0.30367202  0.34511602    -0.78700
O76         O  0.28478654  0.29818427  0.40446148    -0.78800
C77         C  0.32380303  0.31491023  0.40808005     1.11000
C78         C  0.17416631  0.30722474  0.33942269     1.10800
C79         C  0.15110231  0.29905429  0.40728036     1.11000
C80         C  0.30682574  0.32154399  0.33003641     1.10900
O81         O  0.34787819  0.42044033  0.36233237    -0.78700
O82         O  0.16543352  0.43380560  0.40437535    -0.78800
O83         O  0.27621033  0.39261851  0.42937084    -0.78700
O84         O  0.20422585  0.40092857  0.32550095    -0.78700
O85         O  0.17866785  0.44434813  0.35582328    -0.78800
O86         O  0.28640245  0.44406603  0.39866266    -0.78700
O87         O  0.28266534  0.43221827  0.34368810    -0.78700
O88         O  0.18453499  0.37901212  0.43173925    -0.78800
Co89       Co  0.29439553  0.39004771  0.37515132     1.51500
Co90       Co  0.16218847  0.38903239  0.37639224     1.51700
Co91       Co  0.23459382  0.34066697  0.41549359     1.51600
Co92       Co  0.24948804  0.36552790  0.34664073     1.51500
O93         O  0.22901718  0.37169193  0.38175735    -1.40700
C94         C  0.32448626  0.44428122  0.34714176     1.10900
C95         C  0.16327633  0.41716984  0.42586683     1.11000
C96         C  0.29018050  0.43329321  0.42122661     1.10900
C97         C  0.18463281  0.43882202  0.33320277     1.10900
O98         O  0.32520140  0.17093239  0.59883522    -0.78700
O99         O  0.15255071  0.16539328  0.64876610    -0.78800
O100        O  0.19754759  0.14540423  0.57062505    -0.78800
O101        O  0.30042922  0.20218233  0.65080967    -0.78700
O102        O  0.16895955  0.18294916  0.60173942    -0.78800
O103        O  0.35128409  0.14701535  0.64366687    -0.78700
O104        O  0.21115333  0.21180282  0.65406934    -0.78700
O105        O  0.28615432  0.14165727  0.56871885    -0.78800
C106        C  0.31479049  0.17134242  0.57655340     1.11000
C107        C  0.16940909  0.20479934  0.65671227     1.10800
C108        C  0.17249136  0.17807214  0.57886552     1.11000
C109        C  0.34037665  0.18747978  0.65324304     1.10900
O110        O  0.29815602  0.05763518  0.64056490    -0.78700
O111        O  0.12873001  0.09746161  0.61223413    -0.78800
O112        O  0.28885526  0.05113899  0.59412616    -0.78700
O113        O  0.20431072  0.11424035  0.67504549    -0.78700
O114        O  0.19382317  0.06840626  0.64315983    -0.78800
O115        O  0.35722596  0.07825997  0.60302221    -0.78700
O116        O  0.29437735  0.10613837  0.67220242    -0.78700
O117        O  0.18876742  0.05751783  0.59720781    -0.78800
Co118      Co  0.30943596  0.11408933  0.61880941     1.51500
Co119      Co  0.18382092  0.12538247  0.62211356     1.51700
Co120      Co  0.24116634  0.10249664  0.58708179     1.51600
Co121      Co  0.25221639  0.15800793  0.66032301     1.51500
O122        O  0.24797993  0.14093866  0.62324624    -1.40700
C123        C  0.30071598  0.06429958  0.66341126     1.10900
C124        C  0.14541326  0.06582137  0.59781817     1.11000
C125        C  0.33156412  0.05348890  0.58888492     1.10900
C126        C  0.19309469  0.07374619  0.66598555     1.10900
N127        N  0.16192673  0.49099962  0.99618488    -0.35200
N128        N  0.23038648  0.50341066  0.95847776    -0.55800
N129        N  0.30282585  0.49302258  0.99593977    -0.35200
N130        N  0.23488654  0.47831093  0.03248539    -0.55800
C131        C  0.13653409  0.48436936  0.97568178     0.28400
C132        C  0.13898431  0.47128267  0.01529162     0.28400
C133        C  0.32620759  0.48976928  0.97458315     0.28400
C134        C  0.32721992  0.46958438  0.01338598     0.28400
C135        C  0.19271511  0.51456810  0.94521623     0.37000
C136        C  0.26701228  0.51905703  0.94551878     0.37000
C137        C  0.19844664  0.48184788  0.04740504     0.37000
C138        C  0.27193860  0.47855364  0.04711988     0.37000
C139        C  0.09661614  0.46084695  0.98197854    -0.20500
C140        C  0.09842483  0.45204138  0.00682105    -0.20500
C141        C  0.36601520  0.46414884  0.97846857    -0.20500
C142        C  0.36664468  0.45143880  0.00289409    -0.20500
C143        C  0.20590830  0.04204581  0.92915559    -0.21500
C144        C  0.25199069  0.04874110  0.92827881    -0.21500
C145        C  0.21253365  0.48591033  0.07164043    -0.21500
C146        C  0.25902702  0.48322000  0.07146992    -0.21500
C147        C  0.14716510  0.50213445  0.95191087    -0.16900
C148        C  0.15354634  0.47115665  0.04015787    -0.16900
C149        C  0.31583343  0.46647815  0.03871647    -0.16900
C150        C  0.31341182  0.51142389  0.95202372    -0.16900
H151        H  0.06899022  0.45066780  0.97000597     0.16000
H152        H  0.07257602  0.43348787  0.01729463     0.16000
H153        H  0.39192086  0.45523238  0.96506125     0.16000
H154        H  0.39341679  0.43159078  0.01189880     0.16000
H155        H  0.18270865  0.05459235  0.91529545     0.14300
H156        H  0.27016808  0.06753963  0.91392215     0.14300
H157        H  0.19131808  0.48755987  0.08789647     0.14300
H158        H  0.28042740  0.48281076  0.08753491     0.14300
H159        H  0.19129520  0.51170615  0.99755961     0.27600
H160        H  0.27411697  0.51433150  0.99864970     0.27600
N161        N  0.31290561  0.25590780  0.99528162    -0.35200
N162        N  0.24412669  0.25117627  0.95753729    -0.55800
N163        N  0.17491328  0.26899840  0.99596922    -0.35200
N164        N  0.24290150  0.27905859  0.03224303    -0.55800
C165        C  0.33878897  0.25566324  0.97461731     0.28400
C166        C  0.33877426  0.27348069  0.01378778     0.28400
C167        C  0.15258611  0.27636124  0.97475785     0.28400
C168        C  0.15146128  0.29229756  0.01388915     0.28400
C169        C  0.27932421  0.23105470  0.94512365     0.37000
C170        C  0.20599555  0.23778461  0.94554326     0.37000
C171        C  0.27955082  0.27475372  0.04682781     0.37000
C172        C  0.20616617  0.28065383  0.04727134     0.37000
C173        C  0.38179144  0.27259245  0.98010713    -0.20500
C174        C  0.38157778  0.28466926  0.00466023    -0.20500
C175        C  0.11519015  0.30562612  0.97899033    -0.20500
C176        C  0.11477214  0.31621642  0.00370140    -0.20500
C177        C  0.26359303  0.20598970  0.92477730    -0.21500
C178        C  0.21707780  0.21005566  0.92509690    -0.21500
C179        C  0.26602278  0.27346713  0.07126776    -0.21500
C180        C  0.21954810  0.27694011  0.07153769    -0.21500
C181        C  0.32547596  0.23652076  0.95158789    -0.16900
C182        C  0.32510190  0.27818488  0.03875108    -0.16900
C183        C  0.16141352  0.28980231  0.03925692    -0.16900
C184        C  0.16158233  0.25135414  0.95265807    -0.16900
H185        H  0.41038677  0.27622479  0.96775232     0.16000
H186        H  0.41006735  0.29973613  0.01452559     0.16000
H187        H  0.09027629  0.31715582  0.96570323     0.16000
H188        H  0.08986963  0.33840552  0.01306719     0.16000
H189        H  0.28349069  0.18655667  0.91121457     0.14300
H190        H  0.19419441  0.19415435  0.91183561     0.14300
H191        H  0.28754565  0.27131906  0.08728783     0.14300
H192        H  0.19833290  0.27781874  0.08779021     0.14300
H193        H  0.28099205  0.24028998  0.99718944     0.27600
H194        H  0.20062115  0.24367392  0.99843541     0.27600
O195        O  0.05797735  0.10619550  0.91016515    -0.78700
O196        O  0.02679964  0.15786191  0.82078553    -0.78800
O197        O  0.03167164  0.02744250  0.86166694    -0.78800
O198        O  0.04901834  0.19818238  0.90902955    -0.78700
O199        O  0.06123656  0.09847418  0.85572750    -0.78800
O200        O  0.01972704  0.16759510  0.94319972    -0.78700
O201        O  0.05282801  0.19023906  0.85550483    -0.78700
O202        O  0.02991602  0.03404631  0.91229448    -0.78800
C203        C  0.06189855  0.06339505  0.91709356     1.11000
C204        C  0.05065185  0.18975780  0.83170368     1.10800
C205        C  0.06278429  0.05349295  0.85268325     1.11000
C206        C  0.04899907  0.19393039  0.93268612     1.10900
O207        O  0.43580969  0.16689817  0.91508590    -0.78700
O208        O  0.47779259  0.07159677  0.82413305    -0.78800
O209        O  0.41929526  0.05941031  0.90105030    -0.78700
O210        O  0.47140924  0.22461496  0.84773447    -0.78700
O211        O  0.44718585  0.15867691  0.83148306    -0.78800
O212        O  0.46289030  0.08708315  0.93025819    -0.78700
O213        O  0.45907530  0.23030597  0.89663565    -0.78700
O214        O  0.42712886  0.04978814  0.85148841    -0.78800
Co215      Co  0.49470970  0.13671392  0.90940214     1.51500
Co216      Co  0.50305255  0.12753011  0.84352463     1.51700
Co217      Co  0.47076992  0.04747100  0.87887806     1.51600
Co218      Co  0.50744603  0.19780005  0.87540832     1.51500
O219        O  0.47805793  0.12251680  0.87610056    -1.40700
C220        C  0.43020222  0.21024605  0.91035170     1.10900
C221        C  0.44243244  0.04777862  0.82983639     1.11000
C222        C  0.42575448  0.06809200  0.92346985     1.10900
C223        C  0.44727450  0.20373604  0.83199342     1.10900
N224        N  0.09133007  0.37615623  0.78558617    -0.35200
N225        N  0.10797502  0.31230810  0.74381181    -0.55800
N226        N  0.14062019  0.39501537  0.71579376    -0.35200
N227        N  0.12645234  0.45929490  0.75869806    -0.55800
C228        C  0.08221979  0.33308282  0.79632433     0.28400
C229        C  0.09021824  0.41051495  0.80338181     0.28400
C230        C  0.15683051  0.35782036  0.70189251     0.28400
C231        C  0.16310837  0.43571034  0.70894830     0.28400
C232        C  0.08833228  0.27987576  0.75902689     0.37000
C233        C  0.11706871  0.28882623  0.72249333     0.37000
C234        C  0.10601558  0.48293805  0.77755542     0.37000
C235        C  0.13345462  0.49238358  0.74091908     0.37000
C236        C  0.07502574  0.34049741  0.82127447    -0.20500
C237        C  0.08061765  0.38893844  0.82573100    -0.20500
C238        C  0.18928805  0.37567237  0.68572952    -0.20500
C239        C  0.19347322  0.42436004  0.69031275    -0.20500
C240        C  0.08492773  0.23549957  0.74732778    -0.21500
C241        C  0.10355165  0.24089297  0.72446005    -0.21500
C242        C  0.11520323  0.03776294  0.77457576    -0.21500
C243        C  0.13263419  0.04363949  0.75131403    -0.21500
C244        C  0.07718557  0.28790171  0.78403713    -0.16900
C245        C  0.09203756  0.46125502  0.79981314    -0.16900
C246        C  0.15557273  0.48323862  0.71832000    -0.16900
C247        C  0.14273689  0.30842514  0.70278943    -0.16900
H248        H  0.58103914  0.29735822  0.83002283     0.16000
H249        H  0.58320816  0.38953922  0.83877314     0.16000
H250        H  0.20824274  0.35589189  0.67192378     0.16000
H251        H  0.21650968  0.44856478  0.68094622     0.16000
H252        H  0.07240032  0.20190111  0.75484493     0.14300
H253        H  0.10803364  0.21164832  0.71151605     0.14300
H254        H  0.10089264  0.06601482  0.78601216     0.14300
H255        H  0.13431118  0.07735972  0.74138779     0.14300
H256        H  0.09252631  0.38268100  0.76691414     0.27600
H257        H  0.11294818  0.39382733  0.72764476     0.27600
N258        N  0.36731823  0.37031055  0.70330428    -0.35200
N259        N  0.39659752  0.30586259  0.74250427    -0.55800
N260        N  0.41841954  0.39007745  0.77240770    -0.35200
N261        N  0.38487407  0.45443089  0.73458120    -0.55800
C262        C  0.35191687  0.32689450  0.69530451     0.28400
C263        C  0.34285744  0.40479012  0.69171665     0.28400
C264        C  0.42308142  0.35471519  0.78934808     0.28400
C265        C  0.42141460  0.43307221  0.78432359     0.28400
C266        C  0.39384824  0.27352360  0.72387764     0.37000
C267        C  0.41742953  0.28321370  0.76128396     0.37000
C268        C  0.37389025  0.47690355  0.71342191     0.37000
C269        C  0.40625619  0.48749949  0.74884070     0.37000
C270        C  0.31750807  0.33400520  0.67835028    -0.24900
C271        C  0.31189542  0.38305532  0.67608161    -0.20500
C272        C  0.42899590  0.37564545  0.81231807    -0.20500
C273        C  0.42867134  0.42474440  0.80912948    -0.20500
C274        C  0.41285819  0.22998845  0.73081491    -0.21500
C275        C  0.42822113  0.23623276  0.75442895    -0.21500
C276        C  0.38315460  0.02077338  0.72172235    -0.21500
C277        C  0.39958514  0.02259682  0.74514671    -0.21500
C278        C  0.36930518  0.28108358  0.70205778    -0.16900
C279        C  0.34919081  0.45531341  0.69387109    -0.16900
C280        C  0.42126252  0.47937138  0.77312962    -0.16900
C281        C  0.42593914  0.30425842  0.78461526    -0.16900
H282        H  0.29844384  0.30673780  0.66849139     0.16000
H283        H  0.28783897  0.40070276  0.66415153     0.16000
H284        H  0.43428621  0.35754993  0.82963590     0.16000
H285        H  0.43400759  0.45083585  0.82364914     0.16000
H286        H  0.41492841  0.19703847  0.72008025     0.14300
H287        H  0.44543635  0.20916368  0.76518980     0.14300
H288        H  0.37750606  0.05190767  0.71024102     0.14300
H289        H  0.40850165  0.05525010  0.75503354     0.14300
H290        H  0.39594180  0.37596379  0.71404266     0.27600
H291        H  0.41872799  0.38542987  0.75352591     0.27600
N292        N  0.07513770  0.11249981  0.22069130    -0.35200
N293        N  0.11393845  0.03506016  0.24797463    -0.55800
N294        N  0.13453799  0.10815252  0.28807764    -0.35200
N295        N  0.10294930  0.18531595  0.25942444    -0.55800
C296        C  0.07137430  0.07635031  0.20376488     0.28400
C297        C  0.06705707  0.15479117  0.20914808     0.28400
C298        C  0.15693195  0.06810665  0.29514401     0.28400
C299        C  0.15218428  0.14605553  0.30090563     0.28400
C300        C  0.09301067  0.00779205  0.23056237     0.37000
C301        C  0.12293776  0.00565571  0.26708964     0.37000
C302        C  0.07469832  0.21153002  0.24535458     0.37000
C303        C  0.10756016  0.20962952  0.28100853     0.37000
C304        C  0.06005432  0.09603966  0.18129555    -0.20500
C305        C  0.05723848  0.14521489  0.18464662    -0.20500
C306        C  0.18931611  0.08051248  0.31249424    -0.20500
C307        C  0.18637008  0.12956098  0.31608020    -0.20500
C308        C  0.13785761  0.48160777  0.22604205    -0.21500
C309        C  0.16197907  0.48054484  0.24749527    -0.21500
C310        C  0.06164821  0.25303590  0.25799692    -0.21500
C311        C  0.08165160  0.25128703  0.28067704    -0.21500
C312        C  0.07532905  0.02588670  0.20816249    -0.16900
C313        C  0.06379671  0.20110807  0.22056314    -0.16900
C314        C  0.13595609  0.19435897  0.30047465    -0.16900
C315        C  0.14484976  0.02006699  0.28914798    -0.16900
H316        H  0.05370689  0.07691182  0.16426579     0.16000
H317        H  0.04741288  0.17055838  0.17061096     0.16000
H318        H  0.21185592  0.05634214  0.32213207     0.16000
H319        H  0.20631889  0.15030697  0.32895853     0.16000
H320        H  0.13465920  0.45164700  0.21336903     0.14300
H321        H  0.18066393  0.44979448  0.25431354     0.14300
H322        H  0.03952562  0.28158141  0.25176404     0.14300
H323        H  0.07662813  0.27739522  0.29526403     0.14300
H324        H  0.07806723  0.10878465  0.23953320     0.27600
H325        H  0.10465492  0.10778565  0.27801263     0.27600
N326        N  0.34914557  0.12817069  0.28650724    -0.35200
N327        N  0.35788122  0.19647556  0.24559850    -0.55800
N328        N  0.38688713  0.11927043  0.21422525    -0.35200
N329        N  0.37412468  0.04944115  0.25349602    -0.55800
C330        C  0.32781661  0.16744716  0.29596406     0.28400
C331        C  0.33627045  0.08941001  0.30001081     0.28400
C332        C  0.38009074  0.15469947  0.19757489     0.28400
C333        C  0.38773621  0.07694705  0.20178366     0.28400
C334        C  0.35002804  0.22783825  0.26413471     0.37000
C335        C  0.37210808  0.22319988  0.22634582     0.37000
C336        C  0.37589557  0.02666679  0.27537405     0.37000
C337        C  0.39819391  0.02230734  0.23735400     0.37000
C338        C  0.30261406  0.15383581  0.31631765    -0.20500
C339        C  0.30768341  0.10459544  0.31878721    -0.20500
C340        C  0.37641632  0.13491856  0.17431913    -0.20500
C341        C  0.38058701  0.08574574  0.17696916    -0.20500
C342        C  0.35849506  0.27476583  0.25648014    -0.21500
C343        C  0.37294672  0.27175444  0.23256668    -0.21500
C344        C  0.35302302  0.47399383  0.27511674    -0.21500
C345        C  0.36535248  0.46595062  0.25126792    -0.21500
C346        C  0.33121880  0.21538187  0.28706330    -0.16900
C347        C  0.35128216  0.04119113  0.29644976    -0.16900
C348        C  0.40045146  0.03177955  0.21178242    -0.16900
C349        C  0.38104011  0.20455442  0.20273903    -0.16900
H350        H  0.28281914  0.17710407  0.32824304     0.16000
H351        H  0.29254338  0.08263648  0.33301274     0.16000
H352        H  0.37161938  0.15399106  0.15723244     0.16000
H353        H  0.37973844  0.05960244  0.16213394     0.16000
H354        H  0.35415793  0.30781248  0.26694446     0.14300
H355        H  0.38167490  0.30192822  0.22089885     0.14300
H356        H  0.34355432  0.44618877  0.28803418     0.14300
H357        H  0.36803468  0.43077189  0.24260834     0.14300
H358        H  0.37366291  0.12850662  0.27275321     0.27600
H359        H  0.39732342  0.12420067  0.23228977     0.27600
O360        O  0.43191064  0.29661537  0.10036549    -0.78700
O361        O  0.05788332  0.30574792  0.15008026    -0.78800
O362        O  0.53361737  0.35173959  0.06655214    -0.78800
O363        O  0.43550453  0.31152751  0.15544636    -0.78700
O364        O  0.05017071  0.30739750  0.09608845    -0.78800
O365        O  0.37052609  0.32334350  0.13643014    -0.78700
O366        O  0.02705818  0.33185822  0.18513343    -0.78700
O367        O  0.44230103  0.34772258  0.06966591    -0.78800
C368        C  0.42841380  0.30719423  0.07784489     1.11000
C369        C  0.05153286  0.30180993  0.17355349     1.10800
C370        C  0.04711262  0.31086942  0.07233404     1.11000
C371        C  0.39330680  0.30076805  0.15241379     1.10900
O372        O  0.41067431  0.41104076  0.14620138    -0.78700
O373        O  0.07941839  0.40541402  0.09822722    -0.78800
O374        O  0.44020979  0.44314423  0.09313204    -0.78700
O375        O  0.02365823  0.42339591  0.16728084    -0.78700
O376        O  0.08422584  0.40889985  0.14663519    -0.78800
O377        O  0.38825601  0.38846740  0.09865369    -0.78700
O378        O  0.44430506  0.39393848  0.18135404    -0.78700
O379        O  0.53443095  0.44335163  0.09196991    -0.78800
Co380      Co  0.42528903  0.35135377  0.12352355     1.51500
Co381      Co  0.05813765  0.35941499  0.12335151     1.51700
Co382      Co  0.48758190  0.39587895  0.08271882     1.51600
Co383      Co  0.47295460  0.37497271  0.15201247     1.51500
O384        O  0.49132908  0.36640147  0.11688975    -1.40700
C385        C  0.41587637  0.41868564  0.16947727     1.10900
C386        C  0.05758164  0.42958245  0.08295246     1.11000
C387        C  0.39961040  0.42957801  0.09049375     1.10900
C388        C  0.06338969  0.43452973  0.16206937     1.10900
C389        C  0.41900327  0.99581357  0.19391054    -0.15000
C390        C  0.39273906  0.45915764  0.18172453    -0.30200
H391        H  0.43740625  0.01028910  0.17826300     0.14000
H392        H  0.36779953  0.48013090  0.17172820     0.14600
C393        C  0.39881426  0.23798772  0.18379882    -0.15000
C394        C  0.37293380  0.26185872  0.16752609    -0.30200
H395        H  0.43463173  0.24643240  0.18518363     0.14000
H396        H  0.33679111  0.25459563  0.16639674     0.14600
C397        C  0.05422999  0.99218263  0.18946745    -0.15000
C398        C  0.08549814  0.47593668  0.17460745    -0.30200
H399        H  0.01878242  0.99874526  0.18531148     0.14000
H400        H  0.12064582  0.48436841  0.17034308     0.14600
C401        C  0.04643800  0.24207292  0.20607638    -0.15000
C402        C  0.06870141  0.25927895  0.18645279    -0.30200
H403        H  0.01611025  0.26032106  0.21271172     0.14000
H404        H  0.09875002  0.24102140  0.17945766     0.14600
C405        C  0.09430297  0.03177648  0.83451814    -0.15000
C406        C  0.06933901  0.49087292  0.81915762    -0.30200
H407        H  0.12743411  0.04755331  0.83107787     0.14000
H408        H  0.03627255  0.47713779  0.82465641     0.14600
C409        C  0.07570691  0.22636630  0.81751017    -0.15000
C410        C  0.05683684  0.24635493  0.79754436    -0.30200
H411        H  0.10680087  0.24128753  0.82503957     0.14000
H412        H  0.02532045  0.23155238  0.79040898     0.14600
C413        C  0.42183246  0.01322023  0.81246711    -0.15000
C414        C  0.44004993  0.52083569  0.78744837    -0.30200
H415        H  0.39196641  0.99328599  0.81836421     0.14000
H416        H  0.47443143  0.53233934  0.78321404     0.14600
C417        C  0.42447363  0.23208365  0.81269324    -0.15000
C418        C  0.44349292  0.27372592  0.80500824    -0.30200
H419        H  0.39520574  0.21708169  0.80330170     0.14000
H420        H  0.47343746  0.28716941  0.81445102     0.14600
C421        C  0.12572392  0.30201701  0.05805532    -0.15000
C422        C  0.08172029  0.28906767  0.05604216    -0.30200
H423        H  0.13581589  0.32364803  0.07382993     0.14000
H424        H  0.07033264  0.26850461  0.04019760     0.14600
C425        C  0.35769572  0.29699587  0.05714621    -0.15000
C426        C  0.39872879  0.27840150  0.06195348    -0.30200
H427        H  0.34648844  0.32828053  0.06766371     0.14000
H428        H  0.41079988  0.24552900  0.05316248     0.14600
C429        C  0.12251589  0.23618331  0.93719519    -0.15000
C430        C  0.08592832  0.21489474  0.94737032    -0.30200
H431        H  0.12558102  0.23837250  0.91735208     0.14000
H432        H  0.08425271  0.21021258  0.96715673     0.14600
C433        C  0.39180856  0.23687790  0.92207080    -0.15000
C434        C  0.36080392  0.21304127  0.93584353    -0.30200
H435        H  0.39039565  0.27596795  0.92071070     0.14000
H436        H  0.36179918  0.17383348  0.93655002     0.14600
C437        C  0.12508882  0.44821372  0.05939298    -0.15000
C438        C  0.08196500  0.45979790  0.06497428    -0.30200
H439        H  0.14174791  0.41986959  0.06977351     0.14000
H440        H  0.06400874  0.48727284  0.05469586     0.14600
C441        C  0.34727530  0.43988366  0.05559860    -0.15000
C442        C  0.36749804  0.45894513  0.07567430    -0.30200
H443        H  0.35587692  0.40321909  0.05026981     0.14000
H444        H  0.36344462  0.49707801  0.07989665     0.14600
C445        C  0.10124699  0.05177596  0.93299205    -0.15000
C446        C  0.11250033  0.00775794  0.94142000    -0.30200
H447        H  0.12176984  0.08242711  0.93873717     0.14000
H448        H  0.08560955  0.47774662  0.93053819     0.14600
C449        C  0.35024880  0.03677277  0.93443287    -0.15000
C450        C  0.39032757  0.05583402  0.94147900    -0.30200
H451        H  0.34259399  0.51761858  0.91418582     0.14000
H452        H  0.39778105  0.06071116  0.96086062     0.14600
C453        C  0.17310834  0.52625496  0.70459396    -0.15000
C454        C  0.17744633  0.03287894  0.68114848    -0.30200
H455        H  0.19004483  0.55485869  0.71477761     0.14000
H456        H  0.16051829  0.00341581  0.67162341     0.14600
C457        C  0.14265821  0.24099875  0.67085853    -0.15000
C458        C  0.16447719  0.27422509  0.68489063    -0.30200
H459        H  0.10590098  0.23853623  0.67115041     0.14000
H460        H  0.20129747  0.27573350  0.68415655     0.14600
C461        C  0.32889763  0.48668420  0.67446551    -0.15000
C462        C  0.31256325  0.02488675  0.68041147    -0.30200
H463        H  0.33597827  0.47857040  0.65528962     0.14000
H464        H  0.29996637  0.02776619  0.69913804     0.14600
C465        C  0.35075242  0.23831869  0.68900857    -0.15000
C466        C  0.37030225  0.21638632  0.66940331    -0.30200
H467        H  0.31573791  0.22968521  0.69363152     0.14000
H468        H  0.40538634  0.22321594  0.66437912     0.14600
C469        C  0.16591458  0.47587243  0.31677984    -0.15000
C470        C  0.15388909  0.98414609  0.30855584    -0.30200
H471        H  0.13359507  0.49178399  0.32209218     0.14000
H472        H  0.13770376  0.98991074  0.32629745     0.14600
C473        C  0.15602870  0.27597654  0.31938131    -0.15000
C474        C  0.14938550  0.22785180  0.32145055    -0.30200
H475        H  0.15156875  0.29337579  0.30178674     0.14000
H476        H  0.15629945  0.21180202  0.33919933     0.14600
C477        C  0.34481775  0.48497277  0.33328425    -0.15000
C478        C  0.33293339  0.00269336  0.31282262    -0.30200
H479        H  0.38155573  0.48655046  0.33177107     0.14000
H480        H  0.29919587  0.98939498  0.30849818     0.14600
C481        C  0.32885292  0.27893430  0.31901265    -0.15000
C482        C  0.30853697  0.25494438  0.30066200    -0.30200
H483        H  0.36076671  0.26604843  0.32643137     0.14000
H484        H  0.27615884  0.26742144  0.29361688     0.14600
C485        C  0.14524403  0.20527434  0.56084245    -0.15000
C486        C  0.10972587  0.23331282  0.56676786    -0.30200
H487        H  0.15036004  0.19537101  0.54169330     0.14000
H488        H  0.10306927  0.24068775  0.58605759     0.14600
C489        C  0.36933603  0.23499829  0.56581255    -0.15000
C490        C  0.33801209  0.20281061  0.55888122    -0.30200
H491        H  0.37508870  0.24148985  0.58525523     0.14000
H492        H  0.33347399  0.19483844  0.53947184     0.14600
C493        C  0.09930141  0.30019029  0.44173376    -0.15000
C494        C  0.12288620  0.27342860  0.42541280    -0.30200
H495        H  0.10014616  0.33932217  0.44061266     0.14000
H496        H  0.12411637  0.23435630  0.42687831     0.14600
C497        C  0.37216909  0.31475803  0.44415946    -0.15000
C498        C  0.35509934  0.29035526  0.42487826    -0.30200
H499        H  0.36126654  0.35162860  0.44760909     0.14000
H500        H  0.36218068  0.25213071  0.42242559     0.14600
C501        C  0.11549019  0.04221846  0.58046628    -0.15000
C502        C  0.12058806  0.05291748  0.55665266    -0.30200
H503        H  0.08460822  0.02527605  0.58715497     0.14000
H504        H  0.15097610  0.07148672  0.55038579     0.14600
C505        C  0.39391332  0.02659135  0.56226672    -0.15000
C506        C  0.34921331  0.03304808  0.56547979    -0.30200
H507        H  0.41520423  0.02954972  0.57847834     0.14000
H508        H  0.32622644  0.03071977  0.55000857     0.14600
C509        C  0.10060055  0.47227636  0.43789546    -0.15000
C510        C  0.13136404  0.43824543  0.44378997    -0.30200
H511        H  0.09986628  0.48636326  0.41934586     0.14000
H512        H  0.13018259  0.42189735  0.46188667     0.14600
C513        C  0.36464985  0.45237641  0.43756452    -0.15000
C514        C  0.31986639  0.46268999  0.43721236    -0.30200
H515        H  0.37730431  0.42618267  0.42428404     0.14000
H516        H  0.30513313  0.48849706  0.45001951     0.14600
N517        N  0.05040855  0.51445306  0.49838089    -0.35200
N518        N  0.48692886  0.99265626  0.45504638    -0.55800
N519        N  0.41979686  0.00966986  0.49387422    -0.35200
N520        N  0.48327219  0.52308491  0.53347932    -0.55800
C521        C  0.09461779  0.99785771  0.47782868     0.28400
C522        C  0.07684030  0.52510523  0.51797137     0.28400
C523        C  0.39622564  0.98198372  0.47790002     0.28400
C524        C  0.39056296  0.49034683  0.52011364     0.28400
C525        C  0.03089428  0.97832122  0.44965885     0.37000
C526        C  0.44768534  0.99154778  0.44210303     0.37000
C527        C  0.01509462  0.54026574  0.54789564     0.37000
C528        C  0.44591165  0.53220506  0.54704391     0.37000
C529        C  0.13983627  0.99588813  0.48503094    -0.20500
C530        C  0.12206488  0.52089711  0.51138953    -0.20500
C531        C  0.36316767  0.95652223  0.49069928    -0.20500
C532        C  0.35404142  0.45974248  0.51646833    -0.20500
C533        C  0.01256741  0.96862895  0.42677499    -0.21500
C534        C  0.45723944  0.99493159  0.41718371    -0.21500
C535        C  0.99658574  0.56520948  0.56762280    -0.21500
C536        C  0.45682315  0.56112382  0.56707759    -0.21500
C537        C  0.07773000  0.98458929  0.45440961    -0.16900
C538        C  0.06132817  0.54037317  0.54132730    -0.16900
C539        C  0.40336251  0.51035889  0.54311505    -0.16900
C540        C  0.40434246  0.98028766  0.45218536    -0.16900
H541        H  0.16923587  0.98572831  0.47428615     0.16000
H542        H  0.15158971  0.52762562  0.52264643     0.16000
H543        H  0.33958022  0.93022523  0.48338681     0.16000
H544        H  0.33130936  0.44537845  0.53026651     0.16000
H545        H  0.03003420  0.96770720  0.40926578     0.14300
H546        H  0.43338440  0.99417975  0.40212794     0.14300
H547        H  0.01342967  0.58950792  0.58022537     0.14300
H548        H  0.43430789  0.57458506  0.58129059     0.14300
H549        H  0.01565961  0.51891581  0.49731885     0.27600
H550        H  0.44446463  0.03504042  0.48914042     0.27600
N551        N  0.05904085  0.73195094  0.48906800    -0.35200
N552        N  0.48638487  0.74995990  0.54538173    -0.55800
N553        N  0.42302522  0.76251701  0.50497266    -0.35200
N554        N  0.49855178  0.78914717  0.47313202    -0.55800
C555        C  0.08509722  0.74122629  0.50882825     0.28400
C556        C  0.08020372  0.75152081  0.46933518     0.28400
C557        C  0.39412201  0.75885156  0.52428931     0.28400
C558        C  0.40079922  0.78545249  0.48668797     0.28400
C559        C  0.03306321  0.71221500  0.54143043     0.37000
C560        C  0.44929549  0.72767184  0.55462625     0.37000
C561        C  0.02013943  0.73358492  0.43930535     0.37000
C562        C  0.46461472  0.79025834  0.45662576     0.37000
C563        C  0.12358375  0.76634683  0.50173761    -0.20500
C564        C  0.12014141  0.77365243  0.47682815    -0.20500
C565        C  0.35269063  0.77900291  0.51809672    -0.20500
C566        C  0.35691959  0.79588505  0.49439556    -0.20500
C567        C  0.02345913  0.68849365  0.56318523    -0.21500
C568        C  0.46150524  0.69783509  0.57389144    -0.21500
C569        C  0.00422961  0.72357115  0.41596432    -0.21500
C570        C  0.48226625  0.79440004  0.43309345    -0.21500
C571        C  0.07722837  0.72303610  0.53250990    -0.16900
C572        C  0.06463651  0.74839668  0.44479502    -0.16900
C573        C  0.41836180  0.79494835  0.46288435    -0.16900
C574        C  0.40427099  0.73617266  0.54692785    -0.16900
H575        H  0.15118415  0.77817349  0.51337053     0.16000
H576        H  0.14459914  0.79269067  0.46562115     0.16000
H577        H  0.32260701  0.78158638  0.52947860     0.16000
H578        H  0.33052482  0.81347579  0.48396611     0.16000
H579        H  0.04714055  0.67357425  0.57621320     0.14300
H580        H  0.43959648  0.67514326  0.58489476     0.14300
H581        H  0.02374027  0.72159779  0.39910765     0.14300
H582        H  0.46368934  0.79792801  0.41609936     0.14300
H583        H  0.03113579  0.70886128  0.48892981     0.27600
H584        H  0.45471011  0.74618816  0.50365355     0.27600
O585        O  0.34480915  0.85806799  0.40165183    -0.78700
O586        O  0.17157739  0.82529605  0.34606419    -0.78800
O587        O  0.20646286  0.78327504  0.40412366    -0.78800
O588        O  0.30202756  0.84416936  0.31854390    -0.78700
O589        O  0.14772557  0.82788049  0.39466332    -0.78800
O590        O  0.33038590  0.82869948  0.35483159    -0.78700
O591        O  0.24088019  0.79482039  0.34708416    -0.78700
O592        O  0.29828921  0.79780281  0.40546593    -0.78800
C593        C  0.33640342  0.81631392  0.40977533     1.11000
C594        C  0.19948902  0.79090932  0.34151002     1.10800
C595        C  0.16415205  0.78999379  0.40417631     1.11000
C596        C  0.32898715  0.82016367  0.33154256     1.10900
O597        O  0.35958929  0.92252400  0.36301113    -0.78700
O598        O  0.17086699  0.92666967  0.39879612    -0.78800
O599        O  0.28286696  0.89263793  0.42874832    -0.78700
O600        O  0.22209843  0.88244334  0.32293254    -0.78700
O601        O  0.18935167  0.93074296  0.34884874    -0.78800
O602        O  0.29405993  0.94312367  0.39774258    -0.78700
O603        O  0.29525087  0.92884893  0.34284859    -0.78700
O604        O  0.19213712  0.87513751  0.42771574    -0.78800
Co605      Co  0.30727804  0.88867119  0.37529243     1.51500
Co606      Co  0.17464386  0.87802160  0.37225708     1.51700
Co607      Co  0.24514150  0.83803226  0.41434653     1.51600
Co608      Co  0.26790814  0.85979821  0.34686455     1.51500
O609        O  0.24195540  0.86715894  0.38048634    -1.40700
C610        C  0.33639490  0.94328144  0.34653224     1.10900
C611        C  0.16973272  0.91186522  0.42080496     1.11000
C612        C  0.29618690  0.93345319  0.42050510     1.10900
C613        C  0.19951977  0.92001771  0.32696874     1.10900
O614        O  0.31456233  0.66515783  0.59732304    -0.78700
O615        O  0.14335904  0.66847064  0.65192848    -0.78800
O616        O  0.18093683  0.65488403  0.57327302    -0.78800
O617        O  0.29219636  0.69928356  0.64985837    -0.78700
O618        O  0.15917066  0.68994730  0.60660307    -0.78800
O619        O  0.34016752  0.64162432  0.64121905    -0.78700
O620        O  0.20378114  0.71249289  0.65571644    -0.78700
O621        O  0.27033272  0.64393096  0.56772102    -0.78800
C622        C  0.30360852  0.66791664  0.57517686     1.11000
C623        C  0.16199966  0.70756762  0.65903627     1.10800
C624        C  0.15847907  0.68762923  0.58376434     1.11000
C625        C  0.33197316  0.68299894  0.65054613     1.10900
O626        O  0.28265478  0.55465396  0.64034963    -0.78700
O627        O  0.11414248  0.60550158  0.61394089    -0.78800
O628        O  0.26959443  0.55111018  0.59167404    -0.78700
O629        O  0.19531121  0.61294981  0.67556870    -0.78700
O630        O  0.17999255  0.56996415  0.64310659    -0.78800
O631        O  0.33988732  0.57152931  0.60185790    -0.78700
O632        O  0.28524486  0.60475043  0.67131382    -0.78700
O633        O  0.17077866  0.56359397  0.59684730    -0.78800
Co634      Co  0.29522397  0.60996518  0.61782802     1.51500
Co635      Co  0.17146512  0.62927031  0.62397132     1.51700
Co636      Co  0.22444703  0.60695341  0.58682998     1.51600
Co637      Co  0.24338151  0.65694890  0.66050524     1.51500
O638        O  0.23626652  0.64123648  0.62359593    -1.40700
C639        C  0.28898157  0.56240983  0.66296035     1.10900
C640        C  0.12792326  0.57344812  0.59885706     1.11000
C641        C  0.31282936  0.54932134  0.58744100     1.10900
C642        C  0.18163201  0.57355691  0.66599163     1.10900
N643        N  0.17419533  0.97684388  0.00058116    -0.35200
N644        N  0.23593767  0.00474564  0.96163777    -0.55800
N645        N  0.31270714  0.98172279  0.99343621    -0.35200
N646        N  0.25174104  0.95013553  0.03139989    -0.55800
C647        C  0.14465162  0.97868240  0.98146597     0.28400
C648        C  0.15257344  0.95558040  0.01971116     0.28400
C649        C  0.33312977  0.98822059  0.97151017     0.28400
C650        C  0.34101005  0.95420091  0.00697417     0.28400
C651        C  0.19648713  0.01595924  0.95030754     0.37000
C652        C  0.26984803  0.02478813  0.94826918     0.37000
C653        C  0.21840902  0.94453340  0.04822657     0.37000
C654        C  0.29145393  0.94265554  0.04322496     0.37000
C655        C  0.10357104  0.95877978  0.98881198    -0.20500
C656        C  0.10856858  0.94423020  0.01279423    -0.20500
C657        C  0.37439609  0.96410055  0.97098137    -0.20500
C658        C  0.37952107  0.94290806  0.99344893    -0.20500
C659        C  0.20576596  0.53650908  0.92349577    -0.21500
C660        C  0.25240579  0.53998517  0.92384964    -0.21500
C661        C  0.23715281  0.93287790  0.07080510    -0.21500
C662        C  0.28332584  0.93132001  0.06757117    -0.21500
C663        C  0.15256653  0.00074900  0.95820765    -0.16900
C664        C  0.17125951  0.94609903  0.04327738    -0.16900
C665        C  0.33451848  0.94185310  0.03173210    -0.16900
C666        C  0.31675002  0.01764389  0.95245952    -0.16900
H667        H  0.07283152  0.95535236  0.97815726     0.16000
H668        H  0.08267619  0.92682772  0.02377646     0.16000
H669        H  0.39849689  0.96204241  0.95597118     0.16000
H670        H  0.40851443  0.92188048  0.99918869     0.16000
H671        H  0.18427946  0.54845661  0.90868582     0.14300
H672        H  0.27305681  0.55555296  0.90946358     0.14300
H673        H  0.21942302  0.92510471  0.08777086     0.14300
H674        H  0.30789189  0.92196157  0.08146719     0.14300
H675        H  0.20583054  0.99315025  0.00151471     0.27600
H676        H  0.28407926  0.00015610  0.99963820     0.27600
N677        N  0.31170372  0.72469882  0.00706664    -0.35200
N678        N  0.24801736  0.69195580  0.97021638    -0.55800
N679        N  0.17380877  0.72291491  0.00341094    -0.35200
N680        N  0.23682686  0.75229669  0.04023902    -0.55800
C681        C  0.34138390  0.70461721  0.99081077     0.28400
C682        C  0.33549486  0.73919386  0.02706264     0.28400
C683        C  0.15352112  0.69343718  0.98700615     0.28400
C684        C  0.14713707  0.72345966  0.02373512     0.28400
C685        C  0.28652640  0.68464661  0.95700370     0.37000
C686        C  0.21245567  0.68637467  0.95477519     0.37000
C687        C  0.27136948  0.77356883  0.05229535     0.37000
C688        C  0.19823193  0.76808998  0.05112281     0.37000
C689        C  0.38467861  0.70659615  0.00078653    -0.20500
C690        C  0.38100343  0.72855260  0.02340236    -0.20500
C691        C  0.11465392  0.67362409  0.99737485    -0.20500
C692        C  0.11027254  0.69322950  0.02048516    -0.20500
C693        C  0.27507525  0.67226188  0.93308927    -0.21500
C694        C  0.22840427  0.67433305  0.93155738    -0.21500
C695        C  0.25447100  0.80235887  0.07124642    -0.21500
C696        C  0.20815669  0.79891038  0.07045029    -0.21500
C697        C  0.33152071  0.68794293  0.96653947    -0.16900
C698        C  0.31796786  0.76560181  0.04748660    -0.16900
C699        C  0.15444067  0.75239975  0.04464668    -0.16900
C700        C  0.16608884  0.68903850  0.96201843    -0.16900
H701        H  0.41624092  0.69513458  0.99239407     0.16000
H702        H  0.40917796  0.73683173  0.03535626     0.16000
H703        H  0.09112401  0.64873744  0.98881128     0.16000
H704        H  0.08305989  0.68621490  0.03338471     0.16000
H705        H  0.29760985  0.66247835  0.91817236     0.14300
H706        H  0.20882448  0.66633556  0.91529466     0.14300
H707        H  0.27340850  0.82321163  0.08458790     0.14300
H708        H  0.18467333  0.81656956  0.08289383     0.14300
H709        H  0.27795329  0.73256384  0.00390199     0.27600
H710        H  0.20057260  0.74635632  0.99957256     0.27600
O711        O  0.05198819  0.60932009  0.90565013    -0.78700
O712        O  0.03175800  0.66578834  0.81799274    -0.78800
O713        O  0.02153964  0.53433777  0.85600009    -0.78800
O714        O  0.05014633  0.69935830  0.90761459    -0.78700
O715        O  0.05869346  0.60142745  0.85194341    -0.78800
O716        O  0.01611611  0.66883235  0.94056256    -0.78700
O717        O  0.05477146  0.69596401  0.85398148    -0.78700
O718        O  0.02145640  0.53853783  0.90635035    -0.78800
C719        C  0.05523760  0.56577716  0.91115906     1.11000
C720        C  0.05457282  0.69673484  0.83014071     1.10800
C721        C  0.05565055  0.55667670  0.84800000     1.11000
C722        C  0.04879463  0.69205839  0.93107684     1.10900
O723        O  0.46008672  0.66174196  0.92745582    -0.78700
O724        O  0.48218343  0.58255813  0.82354682    -0.78800
O725        O  0.41980648  0.55031872  0.89902714    -0.78700
O726        O  0.45955244  0.73291502  0.85935003    -0.78700
O727        O  0.45843533  0.67073239  0.83526923    -0.78800
O728        O  0.46591675  0.56617587  0.92954216    -0.78700
O729        O  0.42799661  0.68630468  0.89341268    -0.78700
O730        O  0.42876111  0.55955282  0.84912247    -0.78800
Co731      Co  0.50964849  0.61539082  0.91551721     1.51500
Co732      Co  0.51225342  0.62902114  0.84702901     1.51700
Co733      Co  0.47049865  0.53990907  0.87573668     1.51600
Co734      Co  0.48926771  0.68665455  0.87967291     1.51500
O735        O  0.48777515  0.61209205  0.87988800    -1.40700
C736        C  0.42544132  0.67824791  0.91613181     1.10900
C737        C  0.44388953  0.56277998  0.82743993     1.11000
C738        C  0.42693281  0.55387885  0.92178228     1.10900
C739        C  0.44879633  0.71502185  0.83932617     1.10900
N740        N  0.10110197  0.88351362  0.78708039    -0.35200
N741        N  0.10908360  0.82139325  0.74445224    -0.55800
N742        N  0.14565758  0.90152838  0.71703915    -0.35200
N743        N  0.13847778  0.96517030  0.76085960    -0.55800
C744        C  0.09235081  0.84039300  0.79768798     0.28400
C745        C  0.10434165  0.91661762  0.80528667     0.28400
C746        C  0.15991687  0.86321557  0.70326765     0.28400
C747        C  0.17190314  0.94006617  0.71103841     0.28400
C748        C  0.08575251  0.79137954  0.75932064     0.37000
C749        C  0.11188310  0.79949435  0.72227580     0.37000
C750        C  0.11916047  0.98912254  0.77997380     0.37000
C751        C  0.14607443  0.99823937  0.74316197     0.37000
C752        C  0.09039293  0.84641259  0.82301758    -0.20500
C753        C  0.09825620  0.89434152  0.82777066    -0.20500
C754        C  0.19545861  0.87808195  0.68824950    -0.20500
C755        C  0.20309008  0.92622293  0.69322964    -0.20500
C756        C  0.07302243  0.75030785  0.74648484    -0.21500
C757        C  0.08997796  0.75504833  0.72323056    -0.21500
C758        C  0.10022714  0.53123205  0.77170803    -0.21500
C759        C  0.11793181  0.53727268  0.74859589    -0.21500
C760        C  0.08088013  0.79741062  0.78493372    -0.16900
C761        C  0.10469459  0.96708003  0.80201514    -0.16900
C762        C  0.16641678  0.98807419  0.72014306    -0.16900
C763        C  0.14063156  0.81580157  0.70314669    -0.16900
H764        H  0.56013232  0.82193483  0.83322358     0.16000
H765        H  0.56300964  0.91513139  0.83868980     0.16000
H766        H  0.21400183  0.85678828  0.67486238     0.16000
H767        H  0.22876941  0.94849085  0.68463732     0.16000
H768        H  0.05560746  0.71874221  0.75341659     0.14300
H769        H  0.08765681  0.72710593  0.70948036     0.14300
H770        H  0.08424195  0.55921051  0.78263986     0.14300
H771        H  0.11856925  0.57077633  0.73844404     0.14300
H772        H  0.09759463  0.89148258  0.76860556     0.27600
H773        H  0.11680284  0.90291364  0.72809536     0.27600
N774        N  0.37825797  0.86780903  0.69933263    -0.35200
N775        N  0.40622452  0.79553112  0.73629779    -0.55800
N776        N  0.41759392  0.87233790  0.77209402    -0.35200
N777        N  0.39017728  0.94460877  0.73504947    -0.55800
C778        C  0.36585070  0.82636946  0.68782424     0.28400
C779        C  0.35855053  0.90486216  0.68699952     0.28400
C780        C  0.43480031  0.83451257  0.78489084     0.28400
C781        C  0.43274113  0.91350345  0.78295773     0.28400
C782        C  0.39542726  0.76498207  0.71778162     0.37000
C783        C  0.41662304  0.76749489  0.75576191     0.37000
C784        C  0.37719831  0.97233751  0.71590792     0.37000
C785        C  0.40427570  0.97522142  0.75285754     0.37000
C786        C  0.33961026  0.83755685  0.66747948    -0.24900
C787        C  0.33506820  0.88674873  0.66697926    -0.20500
C788        C  0.46039367  0.85197960  0.80427744    -0.20500
C789        C  0.45926042  0.90152018  0.80303560    -0.20500
C790        C  0.40028023  0.71750142  0.72533955    -0.21500
C791        C  0.41341054  0.71906206  0.74935119    -0.21500
C792        C  0.38804552  0.52470698  0.71437451    -0.21500
C793        C  0.40836311  0.53143530  0.73682578    -0.21500
C794        C  0.37508363  0.77832949  0.69539483    -0.16900
C795        C  0.35988330  0.95465106  0.69329098    -0.16900
C796        C  0.42424263  0.96179555  0.77536811    -0.16900
C797        C  0.42945563  0.78454394  0.77922402    -0.16900
H798        H  0.32422683  0.81274706  0.65452885     0.16000
H799        H  0.31538227  0.90671220  0.65372252     0.16000
H800        H  0.47904272  0.83120822  0.81761316     0.16000
H801        H  0.47667391  0.92588563  0.81540681     0.16000
H802        H  0.39326843  0.68493413  0.71493936     0.14300
H803        H  0.41899042  0.68782063  0.76080083     0.14300
H804        H  0.38424639  0.55200498  0.70038948     0.14300
H805        H  0.42268874  0.56494854  0.74359077     0.14300
H806        H  0.40032966  0.87044731  0.71406823     0.27600
H807        H  0.39436956  0.87022042  0.75784377     0.27600
N808        N  0.07955577  0.62705650  0.21817095    -0.35200
N809        N  0.12791517  0.55274877  0.24515064    -0.55800
N810        N  0.14875193  0.62250024  0.28376929    -0.35200
N811        N  0.09702455  0.69633130  0.25761041    -0.55800
C812        C  0.06441240  0.58687986  0.20643270     0.28400
C813        C  0.05205130  0.66409021  0.21176028     0.28400
C814        C  0.16144004  0.58103037  0.29499852     0.28400
C815        C  0.14608083  0.65753977  0.30122332     0.28400
C816        C  0.11722247  0.52658717  0.22491463     0.37000
C817        C  0.15510707  0.52467073  0.25904829     0.37000
C818        C  0.08171608  0.72697306  0.24023675     0.37000
C819        C  0.11656867  0.72418967  0.27509137     0.37000
C820        C  0.02719438  0.59891713  0.19213942    -0.20500
C821        C  0.01934068  0.64746598  0.19556726    -0.20500
C822        C  0.16795837  0.59039744  0.31982001    -0.20500
C823        C  0.15766533  0.63825688  0.32376717    -0.20500
C824        C  0.08999612  0.96037354  0.23837826    -0.21500
C825        C  0.10877878  0.95903973  0.26153471    -0.21500
C826        C  0.09142607  0.77433863  0.24675289    -0.21500
C827        C  0.11336686  0.77258931  0.26883193    -0.21500
C828        C  0.08427900  0.54014804  0.20734522    -0.16900
C829        C  0.05738088  0.71303640  0.21908551    -0.16900
C830        C  0.13572509  0.70696788  0.29712815    -0.16900
C831        C  0.16875753  0.53543111  0.28335550    -0.16900
H832        H  0.00794496  0.57542636  0.18014948     0.16000
H833        H  0.99264572  0.66818231  0.18701026     0.16000
H834        H  0.17918095  0.56565841  0.33382927     0.16000
H835        H  0.15894341  0.65671252  0.34131404     0.16000
H836        H  0.07483840  0.93017876  0.22872755     0.14300
H837        H  0.11139999  0.92737887  0.27301098     0.14300
H838        H  0.08368656  0.80690202  0.23669421     0.14300
H839        H  0.12588248  0.80354592  0.27897163     0.14300
H840        H  0.10962695  0.63032678  0.22792290     0.27600
H841        H  0.14635563  0.62780246  0.26497347     0.27600
N842        N  0.35763020  0.63085426  0.28807125    -0.35200
N843        N  0.38228693  0.69152810  0.24486786    -0.55800
N844        N  0.38880720  0.60678225  0.21432486    -0.35200
N845        N  0.36586812  0.54608263  0.25761015    -0.55800
C846        C  0.34491910  0.67525918  0.29601646     0.28400
C847        C  0.33656395  0.59799529  0.30269112     0.28400
C848        C  0.40662113  0.63977134  0.19856804     0.28400
C849        C  0.39910333  0.56246322  0.20529519     0.28400
C850        C  0.37860010  0.72608346  0.26233820     0.37000
C851        C  0.39724433  0.71383285  0.22427246     0.37000
C852        C  0.35380186  0.52359943  0.27869561     0.37000
C853        C  0.37339224  0.51083462  0.24084306     0.37000
C854        C  0.31609768  0.67043427  0.31613080    -0.20500
C855        C  0.31117978  0.62184712  0.32043059    -0.20500
C856        C  0.42664561  0.61606896  0.17888899    -0.20500
C857        C  0.42245866  0.56759876  0.18322644    -0.20500
C858        C  0.39224047  0.77032292  0.25292475    -0.21500
C859        C  0.40401610  0.76258230  0.22890771    -0.21500
C860        C  0.40123082  0.98478630  0.27324030    -0.21500
C861        C  0.41649184  0.98270651  0.24932581    -0.21500
C862        C  0.35826306  0.72014358  0.28569627    -0.16900
C863        C  0.33930823  0.54704989  0.30048189    -0.16900
C864        C  0.38998519  0.51734843  0.21665839    -0.16900
C865        C  0.40738309  0.69062511  0.20167111    -0.16900
H866        H  0.29951186  0.69884343  0.32650649     0.16000
H867        H  0.29030029  0.60594919  0.33464754     0.16000
H868        H  0.44419501  0.63189869  0.16340504     0.16000
H869        H  0.43665586  0.53960577  0.17161726     0.16000
H870        H  0.39292658  0.80491582  0.26228723     0.14300
H871        H  0.41655760  0.78986978  0.21645617     0.14300
H872        H  0.40844031  0.95884481  0.28749553     0.14300
H873        H  0.43851475  0.95504908  0.24185253     0.14300
H874        H  0.38176856  0.62388250  0.27453105     0.27600
H875        H  0.36909047  0.61358594  0.22977552     0.27600
O876        O  0.39316383  0.84207995  0.10142131    -0.78700
O877        O  0.03356567  0.78837247  0.14113415    -0.78800
O878        O  0.54106183  0.79214498  0.09771386    -0.78800
O879        O  0.46701192  0.79027869  0.14974451    -0.78700
O880        O  0.04536763  0.79772673  0.09282225    -0.78800
O881        O  0.40314660  0.83141530  0.14969135    -0.78700
O882        O  0.01695518  0.83420842  0.17203976    -0.78700
O883        O  0.44728423  0.78910222  0.09954574    -0.78800
C884        C  0.40700661  0.80062401  0.09516674     1.11000
C885        C  0.03052072  0.79396046  0.16385271     1.10800
C886        C  0.04855790  0.81332467  0.07116047     1.11000
C887        C  0.42500391  0.79270391  0.15456908     1.10900
O888        O  0.43264427  0.93337005  0.15302793    -0.78700
O889        O  0.08468381  0.89049985  0.09894522    -0.78800
O890        O  0.44493224  0.88244081  0.07330642    -0.78700
O891        O  0.01117982  0.93194711  0.15382121    -0.78700
O892        O  0.07234130  0.88745121  0.14938884    -0.78800
O893        O  0.42915619  0.93733335  0.10193546    -0.78700
O894        O  0.44746309  0.87603238  0.17900715    -0.78700
O895        O  0.53648838  0.88030007  0.07133870    -0.78800
Co896      Co  0.41967049  0.88680442  0.12653708     1.51500
Co897      Co  0.05446639  0.84214798  0.12063977     1.51700
Co898      Co  0.49185320  0.83760784  0.08858535     1.51600
Co899      Co  0.49872308  0.85062659  0.15765517     1.51500
O900        O  0.48840606  0.87207443  0.12297387    -1.40700
C901        C  0.43120098  0.91748427  0.17471451     1.10900
C902        C  0.07299417  0.93001948  0.08909736     1.11000
C903        C  0.42678131  0.92258080  0.07992546     1.10900
C904        C  0.05258182  0.92487986  0.15843574     1.10900
C905        C  0.40619780  0.47303521  0.20417197    -0.15000
C906        C  0.41293944  0.94779993  0.19469870    -0.30200
H907        H  0.43089683  0.45161063  0.21411641     0.14000
H908        H  0.39449596  0.93072806  0.20956651     0.14600
C909        C  0.42695454  0.72051927  0.18135730    -0.15000
C910        C  0.40288475  0.75489827  0.16973477    -0.30200
H911        H  0.46275925  0.71590869  0.17717923     0.14000
H912        H  0.36716544  0.75931947  0.17422819     0.14600
C913        C  0.06325522  0.50136139  0.19208049    -0.15000
C914        C  0.07649615  0.95731050  0.17652998    -0.30200
H915        H  0.02798276  0.49315620  0.19598821     0.14000
H916        H  0.11225349  0.95115941  0.18006186     0.14600
C917        C  0.03706672  0.75221396  0.20392569    -0.15000
C918        C  0.04438520  0.75368006  0.17966155    -0.30200
H919        H  0.02010681  0.78229402  0.21298639     0.14000
H920        H  0.06253104  0.72410082  0.17083225     0.14600
C921        C  0.08569416  0.53108076  0.83029119    -0.15000
C922        C  0.07881925  0.99471385  0.82080612    -0.30200
H923        H  0.11820813  0.54634864  0.82500608     0.14000
H924        H  0.04495087  0.98075695  0.82443996     0.14600
C925        C  0.08023189  0.73373747  0.81699085    -0.15000
C926        C  0.05985949  0.75694306  0.79851470    -0.30200
H927        H  0.11311398  0.74529250  0.82376572     0.14000
H928        H  0.02656300  0.74512672  0.79245749     0.14600
C929        C  0.41891996  0.53771843  0.80765422    -0.15000
C930        C  0.44169841  0.00172699  0.79103625    -0.30200
H931        H  0.38507060  0.52447680  0.81191433     0.14000
H932        H  0.47123216  0.02157300  0.78463741     0.14600
C933        C  0.42801421  0.74694701  0.82089242    -0.15000
C934        C  0.44299283  0.74711183  0.79759087    -0.30200
H935        H  0.40647001  0.77627579  0.82733006     0.14000
H936        H  0.46544216  0.71827741  0.79158790     0.14600
C937        C  0.11587038  0.76465773  0.06132097    -0.15000
C938        C  0.07892500  0.78861269  0.05344073    -0.30200
H939        H  0.12123603  0.76058654  0.08093494     0.14000
H940        H  0.07560131  0.79691428  0.03405223     0.14600
C941        C  0.34970166  0.79166905  0.06381091    -0.15000
C942        C  0.37865829  0.77012652  0.07923581    -0.30200
H943        H  0.34592521  0.83065358  0.06445975     0.14000
H944        H  0.38324419  0.73120524  0.07893033     0.14600
C945        C  0.12898367  0.68424587  0.94331662    -0.15000
C946        C  0.08772957  0.70482458  0.94655775    -0.30200
H947        H  0.13496092  0.66308141  0.92682321     0.14000
H948        H  0.08068718  0.72692860  0.96263313     0.14600
C949        C  0.38293907  0.69118787  0.92950145    -0.15000
C950        C  0.37143304  0.67159998  0.95126824    -0.30200
H951        H  0.36055528  0.71752347  0.92116351     0.14000
H952        H  0.39448158  0.64569157  0.95942973     0.14600
C953        C  0.14072572  0.92858908  0.06311139    -0.15000
C954        C  0.10555922  0.95405120  0.07241553    -0.30200
H955        H  0.14771192  0.89259990  0.06997917     0.14000
H956        H  0.09789080  0.98971915  0.06533659     0.14600
C957        C  0.37411433  0.92234104  0.04521997    -0.15000
C958        C  0.39459307  0.94696327  0.06340726    -0.30200
H959        H  0.38589944  0.88649893  0.04010904     0.14000
H960        H  0.38219603  0.98264470  0.06844581     0.14600
C961        C  0.09690177  0.55177282  0.92521627    -0.15000
C962        C  0.10817972  0.50798717  0.93398898    -0.30200
H963        H  0.11909315  0.58150079  0.93013371     0.14000
H964        H  0.09106294  0.97702179  0.93702310     0.14600
C965        C  0.34983857  0.52336675  0.93350709    -0.15000
C966        C  0.39057963  0.54219910  0.93983176    -0.30200
H967        H  0.34236920  0.03370482  0.91502670     0.14000
H968        H  0.39774553  0.54937135  0.95905721     0.14600
C969        C  0.18368354  0.02999948  0.70551450    -0.15000
C970        C  0.16558870  0.53187735  0.68051235    -0.30200
H971        H  0.19955259  0.06002998  0.71512726     0.14000
H972        H  0.14743736  0.50372448  0.67061606     0.14600
C973        C  0.13716798  0.74667694  0.67210874    -0.15000
C974        C  0.16052633  0.77913903  0.68588823    -0.30200
H975        H  0.10043092  0.74777510  0.67119993     0.14000
H976        H  0.19735010  0.77734910  0.68581673     0.14600
C977        C  0.34241486  0.98981336  0.67465788    -0.15000
C978        C  0.30271578  0.52461007  0.68042485    -0.30200
H979        H  0.35473641  0.98668320  0.65588203     0.14000
H980        H  0.29579847  0.53175049  0.69973039     0.14600
C981        C  0.34938222  0.74026560  0.68247034    -0.15000
C982        C  0.36559339  0.71143629  0.66445120    -0.30200
H983        H  0.31346660  0.73940870  0.68714153     0.14000
H984        H  0.40147335  0.71016551  0.65992418     0.14600
C985        C  0.18608171  0.95049303  0.30615800    -0.15000
C986        C  0.18876856  0.49501468  0.29785529    -0.30200
H987        H  0.20318476  0.94556342  0.28860362     0.14000
H988        H  0.22136335  0.48008496  0.29234861     0.14600
C989        C  0.18591450  0.74809956  0.32704298    -0.15000
C990        C  0.14488383  0.74368201  0.31670003    -0.30200
H991        H  0.21213912  0.72186633  0.32256817     0.14000
H992        H  0.11955993  0.77151416  0.32001978     0.14600
C993        C  0.35570946  0.98375780  0.33192332    -0.15000
C994        C  0.31938009  0.51621239  0.32027977    -0.30200
H995        H  0.38955902  0.99680441  0.33616275     0.14000
H996        H  0.28268470  0.51579597  0.32218775     0.14600
C997        C  0.35282783  0.77872299  0.32051260    -0.15000
C998        C  0.34211562  0.76506713  0.29756120    -0.30200
H999        H  0.37529758  0.75685476  0.33163914     0.14000
H1000       H  0.31991466  0.78744737  0.28650027     0.14600
C1001       C  0.12655567  0.71772383  0.56970946    -0.15000
C1002       C  0.11809547  0.70699125  0.54609009    -0.30200
H1003       H  0.10472318  0.74288199  0.57956130     0.14000
H1004       H  0.14068727  0.68261634  0.53620775     0.14600
C1005       C  0.36749234  0.72143666  0.56430438    -0.15000
C1006       C  0.33140715  0.69523597  0.55731433    -0.30200
H1007       H  0.37391912  0.72589758  0.58382555     0.14000
H1008       H  0.32525588  0.68893355  0.53790276     0.14600
C1009       C  0.09170520  0.77043235  0.42453124    -0.15000
C1010       C  0.13478625  0.75801677  0.41914212    -0.30200
H1011       H  0.07582811  0.80001028  0.41473103     0.14000
H1012       H  0.15034469  0.72794193  0.42868016     0.14600
C1013       C  0.38829154  0.81763116  0.44450097    -0.15000
C1014       C  0.36780922  0.79216639  0.42668234    -0.30200
H1015       H  0.38254546  0.85627899  0.44610708     0.14000
H1016       H  0.37086002  0.75307276  0.42615880     0.14600
C1017       C  0.09537582  0.54878224  0.58304185    -0.15000
C1018       C  0.09551386  0.55925441  0.55897467    -0.30200
H1019       H  0.06922503  0.52627330  0.59117255     0.14000
H1020       H  0.12212905  0.58252843  0.55179681     0.14600
C1021       C  0.37322167  0.50777877  0.56512985    -0.15000
C1022       C  0.33072524  0.52484063  0.56528298    -0.30200
H1023       H  0.38975940  0.50306368  0.58278063     0.14000
H1024       H  0.31265526  0.53011499  0.54817246     0.14600
C1025       C  0.11059596  0.97011839  0.43488561    -0.15000
C1026       C  0.13856487  0.93287164  0.43894131    -0.30200
H1027       H  0.10929929  0.98712611  0.41697944     0.14000
H1028       H  0.13675616  0.91451074  0.45653189     0.14600
C1029       C  0.36995556  0.95909855  0.43500201    -0.15000
C1030       C  0.32447170  0.96388198  0.43671199    -0.30200
H1031       H  0.38322879  0.93729185  0.41994635     0.14000
H1032       H  0.30885600  0.98453309  0.45147025     0.14600
N1033       N  0.56278018  0.02018013  0.48617631    -0.35200
N1034       N  0.98130877  0.48487728  0.46246285    -0.55800
N1035       N  0.91125242  0.49156360  0.49971302    -0.35200
N1036       N  0.00398878  0.02701581  0.53665828    -0.55800
C1037       C  0.57765478  0.50948635  0.47480000     0.28400
C1038       C  0.58896424  0.01845647  0.50653886     0.28400
C1039       C  0.88752066  0.47061918  0.48126116     0.28400
C1040       C  0.91346852  0.98902201  0.52960078     0.28400
C1041       C  0.51674681  0.49001467  0.44402487     0.37000
C1042       C  0.94452022  0.48013582  0.44772801     0.37000
C1043       C  0.53325690  0.05569303  0.53414455     0.37000
C1044       C  0.96765778  0.04378930  0.54913483     0.37000
C1045       C  0.62244501  0.51900863  0.48121051    -0.20500
C1046       C  0.62817882  0.99274235  0.50144154    -0.20500
C1047       C  0.85072838  0.44596628  0.49113019    -0.20500
C1048       C  0.88052680  0.95340322  0.53039818    -0.20500
C1049       C  0.50196795  0.48177371  0.42023278    -0.21500
C1050       C  0.95852836  0.47817118  0.42339894    -0.21500
C1051       C  0.52004746  0.09021037  0.55126164    -0.21500
C1052       C  0.98005489  0.08175317  0.56444545    -0.21500
C1053       C  0.56313570  0.49458824  0.45103668    -0.16900
C1054       C  0.57819887  0.04116552  0.52913500    -0.16900
C1055       C  0.92528480  0.02055923  0.54903659    -0.16900
C1056       C  0.89914071  0.47214682  0.45590635    -0.16900
H1057       H  0.65222175  0.51849976  0.46955545     0.16000
H1058       H  0.65561091  0.98483966  0.51394001     0.16000
H1059       H  0.82564041  0.42488005  0.48136968     0.16000
H1060       H  0.86001109  0.94289622  0.54599726     0.16000
H1061       H  0.52221087  0.47865863  0.40370372     0.14300
H1062       H  0.93762877  0.47395468  0.40723879     0.14300
H1063       H  0.54152225  0.11472504  0.56149496     0.14300
H1064       H  0.95863641  0.10238109  0.57681403     0.14300
H1065       H  0.53327553  0.04051907  0.48413518     0.27600
H1066       H  0.93784101  0.51594472  0.49765246     0.27600
N1067       N  0.55565721  0.26976086  0.50506893    -0.35200
N1068       N  0.99175564  0.25842422  0.54378710    -0.55800
N1069       N  0.92010942  0.27611809  0.50767375    -0.35200
N1070       N  0.98638342  0.28022531  0.46890890    -0.55800
C1071       C  0.57964640  0.27667303  0.52596047     0.28400
C1072       C  0.57964335  0.28983380  0.48652188     0.28400
C1073       C  0.89710002  0.28054022  0.52911602     0.28400
C1074       C  0.89523104  0.29804285  0.49002652     0.28400
C1075       C  0.52314944  0.24382137  0.55484369     0.37000
C1076       C  0.95481649  0.24597091  0.55721202     0.37000
C1077       C  0.52279616  0.28072111  0.45323416     0.37000
C1078       C  0.94903548  0.28718302  0.45502855     0.37000
C1079       C  0.61923936  0.30159221  0.52066270    -0.20500
C1080       C  0.61940334  0.30965566  0.49573300    -0.20500
C1081       C  0.85707761  0.30550822  0.52516374    -0.20500
C1082       C  0.85586607  0.31655149  0.50053035    -0.20500
C1083       C  0.51017536  0.21537696  0.57454038    -0.21500
C1084       C  0.96792513  0.22019020  0.57777356    -0.21500
C1085       C  0.50945310  0.28172554  0.42885282    -0.21500
C1086       C  0.96109368  0.28885185  0.43038132    -0.21500
C1087       C  0.56805334  0.25719345  0.54913792    -0.16900
C1088       C  0.56748698  0.28874628  0.46141531    -0.16900
C1089       C  0.90569521  0.29903309  0.46452853    -0.16900
C1090       C  0.90950013  0.25857723  0.55157463    -0.16900
H1091       H  0.64556065  0.31228035  0.53338385     0.16000
H1092       H  0.64596129  0.32779023  0.48554999     0.16000
H1093       H  0.83109512  0.31414845  0.53858138     0.16000
H1094       H  0.82848419  0.33507938  0.49136378     0.16000
H1095       H  0.53169729  0.19752934  0.58773595     0.14300
H1096       H  0.94658875  0.20481226  0.59191978     0.14300
H1097       H  0.53084565  0.28383603  0.41270743     0.14300
H1098       H  0.93992181  0.29645146  0.41472769     0.14300
H1099       H  0.52715909  0.24783716  0.50315989     0.27600
H1100       H  0.94820983  0.25405855  0.50495134     0.27600
O1101       O  0.83399313  0.35977661  0.40145694    -0.78700
O1102       O  0.65525220  0.33279548  0.34992994    -0.78800
O1103       O  0.69223747  0.29424348  0.40718539    -0.78800
O1104       O  0.78502248  0.33907705  0.31923031    -0.78700
O1105       O  0.63614825  0.34302804  0.39851724    -0.78800
O1106       O  0.81732365  0.33008997  0.35520574    -0.78700
O1107       O  0.72224168  0.29647322  0.34974732    -0.78700
O1108       O  0.78481217  0.30244650  0.40747948    -0.78800
C1109       C  0.82398280  0.31930829  0.41074057     1.11000
C1110       C  0.67984616  0.29553148  0.34576121     1.10800
C1111       C  0.65085744  0.30501731  0.40858382     1.11000
C1112       C  0.81453962  0.31877354  0.33222800     1.10900
O1113       O  0.84881973  0.42276753  0.36194331    -0.78700
O1114       O  0.66542232  0.43963342  0.39913872    -0.78800
O1115       O  0.77609128  0.39893362  0.42915603    -0.78700
O1116       O  0.70766027  0.38225986  0.32378841    -0.78700
O1117       O  0.67953479  0.43636058  0.34832488    -0.78800
O1118       O  0.78700156  0.44771300  0.39757076    -0.78700
O1119       O  0.78406282  0.42708541  0.34159058    -0.78700
O1120       O  0.68469906  0.38950902  0.42913705    -0.78800
Co1121     Co  0.79652541  0.39159028  0.37532736     1.51500
Co1122     Co  0.66398361  0.38806660  0.37406187     1.51700
Co1123     Co  0.73446129  0.34674856  0.41603048     1.51600
Co1124     Co  0.75354241  0.35956537  0.34764081     1.51500
O1125       O  0.73093068  0.37272349  0.38143013    -1.40700
C1126       C  0.82495566  0.44258152  0.34541199     1.10900
C1127       C  0.66364615  0.42668869  0.42146177     1.11000
C1128       C  0.79073681  0.43862711  0.42034974     1.10900
C1129       C  0.68741307  0.42165805  0.32672321     1.10900
O1130       O  0.81639963  0.18620445  0.60138730    -0.78700
O1131       O  0.64006780  0.16702128  0.64502794    -0.78800
O1132       O  0.69451867  0.16428633  0.56889021    -0.78800
O1133       O  0.78584261  0.20310728  0.65712875    -0.78700
O1134       O  0.66179895  0.19399128  0.60087446    -0.78800
O1135       O  0.83717347  0.15134834  0.64482388    -0.78700
O1136       O  0.69485098  0.21247722  0.65937636    -0.78700
O1137       O  0.78266940  0.15898601  0.56925444    -0.78800
C1138       C  0.81034441  0.18787842  0.57869095     1.11000
C1139       C  0.65331568  0.20665627  0.65469288     1.10800
C1140       C  0.66840313  0.19477157  0.57817685     1.11000
C1141       C  0.82637327  0.18913344  0.65685289     1.10900
O1142       O  0.78376959  0.06432769  0.63469882    -0.78700
O1143       O  0.62069210  0.10653256  0.60393859    -0.78800
O1144       O  0.78189622  0.06270781  0.58848229    -0.78700
O1145       O  0.68781941  0.11036311  0.67091598    -0.78700
O1146       O  0.68123997  0.07091823  0.63644337    -0.78800
O1147       O  0.84720126  0.09278970  0.60195580    -0.78700
O1148       O  0.77971690  0.10100269  0.67007052    -0.78700
O1149       O  0.68159437  0.06975692  0.58820153    -0.78800
Co1150     Co  0.79775237  0.12521831  0.61733252     1.51500
Co1151     Co  0.67422615  0.13232060  0.61791516     1.51700
Co1152     Co  0.73536969  0.11746692  0.58452022     1.51600
Co1153     Co  0.73709093  0.15647454  0.66142899     1.51500
O1154       O  0.73681109  0.14970410  0.62285451    -1.40700
C1155       C  0.78901806  0.06342464  0.65751327     1.10900
C1156       C  0.63802263  0.07663924  0.58876848     1.11000
C1157       C  0.82574312  0.06438491  0.58761630     1.10900
C1158       C  0.67797457  0.07193687  0.65950121     1.10900
N1159       N  0.67001792  0.47702612  0.99691283    -0.35200
N1160       N  0.73475762  0.50110903  0.95800864    -0.55800
N1161       N  0.80860439  0.47960092  0.99172588    -0.35200
N1162       N  0.74517757  0.45315671  0.02961061    -0.55800
C1163       C  0.64093439  0.48183396  0.97777037     0.28400
C1164       C  0.64662962  0.45793207  0.01604367     0.28400
C1165       C  0.83029321  0.48381574  0.97000758     0.28400
C1166       C  0.83533013  0.45240848  0.00625112     0.28400
C1167       C  0.69592886  0.51797889  0.94789705     0.37000
C1168       C  0.76973620  0.52331497  0.94632319     0.37000
C1169       C  0.71081520  0.44730390  0.04575550     0.37000
C1170       C  0.78403838  0.44620798  0.04221106     0.37000
C1171       C  0.59820752  0.46638370  0.98507514    -0.20500
C1172       C  0.60184056  0.45111671  0.00907460    -0.20500
C1173       C  0.87067088  0.45816464  0.97045151    -0.20500
C1174       C  0.87404754  0.43858297  0.99344962    -0.20500
C1175       C  0.72309970  0.07064810  0.93180773    -0.21500
C1176       C  0.76912506  0.07202607  0.93598435    -0.21500
C1177       C  0.72798307  0.43638220  0.06876657    -0.21500
C1178       C  0.77429624  0.43550350  0.06650111    -0.21500
C1179       C  0.65102659  0.50434267  0.95490895    -0.16900
C1180       C  0.66420377  0.44715868  0.03973146    -0.16900
C1181       C  0.82753335  0.44358337  0.03132375    -0.16900
C1182       C  0.81637006  0.51424545  0.95086297    -0.16900
H1183       H  0.56731335  0.46673091  0.97443139     0.16000
H1184       H  0.57438460  0.43706992  0.02020220     0.16000
H1185       H  0.89557124  0.45472274  0.95588803     0.16000
H1186       H  0.90227572  0.41740499  0.00006706     0.16000
H1187       H  0.70523142  0.09227702  0.91849789     0.14300
H1188       H  0.79334407  0.09470427  0.92647759     0.14300
H1189       H  0.70909297  0.42824786  0.08532124     0.14300
H1190       H  0.79771912  0.42599718  0.08092383     0.14300
H1191       H  0.70284547  0.49028720  0.99768750     0.27600
H1192       H  0.78065465  0.49996419  0.99725500     0.27600
N1193       N  0.81174671  0.24093855  0.00679211    -0.35200
N1194       N  0.74626688  0.21306583  0.96884485    -0.55800
N1195       N  0.67362313  0.22940788  0.00344755    -0.35200
N1196       N  0.73867424  0.25320679  0.04204787    -0.55800
C1197       C  0.84020847  0.22430867  0.98911215     0.28400
C1198       C  0.83633400  0.24746716  0.02757749     0.28400
C1199       C  0.65280940  0.20279608  0.98591515     0.28400
C1200       C  0.64822932  0.22563549  0.02407142     0.28400
C1201       C  0.78422487  0.21466593  0.95490005     0.37000
C1202       C  0.71089168  0.20833261  0.95325083     0.37000
C1203       C  0.77273994  0.27478849  0.05459386     0.37000
C1204       C  0.69947667  0.26786561  0.05276400     0.37000
C1205       C  0.88363082  0.22077205  0.99870451    -0.20500
C1206       C  0.88130889  0.23588349  0.02278192    -0.20500
C1207       C  0.61473214  0.18055423  0.99584734    -0.20500
C1208       C  0.61144571  0.19568380  0.01986074    -0.20500
C1209       C  0.77296667  0.21045360  0.93028180    -0.21500
C1210       C  0.72646943  0.20697973  0.92921253    -0.21500
C1211       C  0.75485721  0.30253065  0.07364565    -0.21500
C1212       C  0.70854757  0.29839592  0.07235927    -0.21500
C1213       C  0.82894993  0.21502483  0.96418602    -0.16900
C1214       C  0.81975238  0.26828941  0.04974944    -0.16900
C1215       C  0.65584549  0.25166161  0.04593684    -0.16900
C1216       C  0.66533659  0.20165644  0.96078392    -0.16900
H1217       H  0.91427858  0.20992922  0.98914736     0.16000
H1218       H  0.91003371  0.23887449  0.03493192     0.16000
H1219       H  0.59122859  0.15655830  0.98664064     0.16000
H1220       H  0.58495253  0.18595296  0.03273393     0.16000
H1221       H  0.79585194  0.20941736  0.91470490     0.14300
H1222       H  0.70671466  0.20279034  0.91264193     0.14300
H1223       H  0.77303738  0.32363650  0.08718110     0.14300
H1224       H  0.68441849  0.31582426  0.08453619     0.14300
H1225       H  0.77860699  0.25215183  0.00403927     0.27600
H1226       H  0.69991078  0.25397932  0.00068133     0.27600
O1227       O  0.55291653  0.10036486  0.90602598    -0.78700
O1228       O  0.53456442  0.15205245  0.81609631    -0.78800
O1229       O  0.52062051  0.02482105  0.85647693    -0.78800
O1230       O  0.55301631  0.19348713  0.90458590    -0.78700
O1231       O  0.55898141  0.09141358  0.85256607    -0.78800
O1232       O  0.51787885  0.16673370  0.93807561    -0.78700
O1233       O  0.56047114  0.18424453  0.85101771    -0.78700
O1234       O  0.51455252  0.03351260  0.90667501    -0.78800
C1235       C  0.55000094  0.05697279  0.91235538     1.11000
C1236       C  0.56106940  0.18106836  0.82719723     1.10800
C1237       C  0.55582055  0.04661821  0.84914768     1.11000
C1238       C  0.55040304  0.18949253  0.92824772     1.10900
O1239       O  0.93643740  0.15745881  0.92186435    -0.78700
O1240       O  0.98011995  0.06877986  0.82981997    -0.78800
O1241       O  0.93086887  0.04690656  0.90917811    -0.78700
O1242       O  0.96059696  0.22005598  0.85470874    -0.78700
O1243       O  0.94082918  0.15233290  0.83860468    -0.78800
O1244       O  0.97317653  0.08163177  0.93687620    -0.78700
O1245       O  0.95215602  0.22371783  0.90373393    -0.78700
O1246       O  0.93618063  0.03876435  0.85878783    -0.78800
Co1247     Co  0.99723803  0.13469450  0.91505782     1.51500
Co1248     Co  0.00084186  0.12750405  0.84878766     1.51700
Co1249     Co  0.98187570  0.04253588  0.88544190     1.51600
Co1250     Co  0.00115522  0.19695237  0.88120897     1.51500
O1251       O  0.97987431  0.11831856  0.88219269    -1.40700
C1252       C  0.92670153  0.20021004  0.91789875     1.10900
C1253       C  0.94836109  0.04046090  0.83645870     1.11000
C1254       C  0.93726269  0.05881345  0.93130175     1.10900
C1255       C  0.93749321  0.19731142  0.83921379     1.10900
N1256       N  0.60997183  0.36121416  0.78185901    -0.35200
N1257       N  0.62994678  0.29700002  0.73864126    -0.55800
N1258       N  0.65252130  0.38315987  0.71183589    -0.35200
N1259       N  0.63992316  0.44622516  0.75611568    -0.55800
C1260       C  0.60252003  0.31725611  0.79203269     0.28400
C1261       C  0.60285520  0.39531242  0.79960566     0.28400
C1262       C  0.66315176  0.34786672  0.69531783     0.28400
C1263       C  0.67507410  0.42375666  0.70509165     0.28400
C1264       C  0.60952634  0.26493684  0.75375777     0.37000
C1265       C  0.62859900  0.27753307  0.71568064     0.37000
C1266       C  0.61799143  0.46910919  0.77482522     0.37000
C1267       C  0.64780035  0.47964410  0.73859388     0.37000
C1268       C  0.59123528  0.32396118  0.81668877    -0.20500
C1269       C  0.59179518  0.37266100  0.82139031    -0.20500
C1270       C  0.69244691  0.36611407  0.67780710    -0.20500
C1271       C  0.70080995  0.41357115  0.68423701    -0.20500
C1272       C  0.59781234  0.22376486  0.74045633    -0.21500
C1273       C  0.60909666  0.23214501  0.71638167    -0.21500
C1274       C  0.60429067  0.03403335  0.76771455    -0.21500
C1275       C  0.61931573  0.03911748  0.74397788    -0.21500
C1276       C  0.59965008  0.27211619  0.77915428    -0.16900
C1277       C  0.60151426  0.44634222  0.79642700    -0.16900
C1278       C  0.66905957  0.47081448  0.71556184    -0.16900
C1279       C  0.64312744  0.30133363  0.69407186    -0.16900
H1280       H  0.06533923  0.31439410  0.83500052     0.16000
H1281       H  0.07637397  0.40653763  0.84339002     0.16000
H1282       H  0.70609216  0.34714844  0.66198857     0.16000
H1283       H  0.72223765  0.43825916  0.67412356     0.16000
H1284       H  0.58141443  0.19140679  0.74715698     0.14300
H1285       H  0.60335580  0.20752161  0.70124464     0.14300
H1286       H  0.59254133  0.06299641  0.77955909     0.14300
H1287       H  0.62138283  0.07283682  0.73407472     0.14300
H1288       H  0.61421013  0.36733854  0.76347342     0.27600
H1289       H  0.62639114  0.38169048  0.72451122     0.27600
N1290       N  0.86486254  0.36457847  0.70743738    -0.35200
N1291       N  0.88756060  0.29865075  0.74833922    -0.55800
N1292       N  0.91193150  0.38176373  0.77785101    -0.35200
N1293       N  0.88298893  0.44770004  0.73876972    -0.55800
C1294       C  0.84947837  0.32161712  0.69882580     0.28400
C1295       C  0.84380401  0.39991653  0.69451365     0.28400
C1296       C  0.91532265  0.34665864  0.79504759     0.28400
C1297       C  0.91718127  0.42486809  0.78937207     0.28400
C1298       C  0.88346684  0.26611406  0.72991633     0.37000
C1299       C  0.90523419  0.27471591  0.76769866     0.37000
C1300       C  0.87468572  0.47067169  0.71734201     0.37000
C1301       C  0.90584008  0.47927935  0.75321813     0.37000
C1302       C  0.81895605  0.32980465  0.67993871    -0.24900
C1303       C  0.81552024  0.37896918  0.67720270    -0.20500
C1304       C  0.92283295  0.36794185  0.81779161    -0.20500
C1305       C  0.92466525  0.41687714  0.81419840    -0.20500
C1306       C  0.89810883  0.22113831  0.73764043    -0.21500
C1307       C  0.91232226  0.22665529  0.76146207    -0.21500
C1308       C  0.86242913  0.02963539  0.73435305    -0.21500
C1309       C  0.88717224  0.02767148  0.75557860    -0.21500
C1310       C  0.86261894  0.27508024  0.70709616    -0.16900
C1311       C  0.85058351  0.45047760  0.69719783    -0.16900
C1312       C  0.91911712  0.47078575  0.77779294    -0.16900
C1313       C  0.91529768  0.29591174  0.79079710    -0.16900
H1314       H  0.80075226  0.30318062  0.66920318     0.16000
H1315       H  0.79455120  0.39709391  0.66386397     0.16000
H1316       H  0.92768085  0.35014349  0.83522982     0.16000
H1317       H  0.93174349  0.44304497  0.82845989     0.16000
H1318       H  0.89845249  0.18777529  0.72717925     0.14300
H1319       H  0.92675014  0.19842775  0.77263103     0.14300
H1320       H  0.84957000  0.06232265  0.72608650     0.14300
H1321       H  0.89658861  0.05834912  0.76686960     0.14300
H1322       H  0.89123615  0.36903251  0.71981785     0.27600
H1323       H  0.91140542  0.37682956  0.75902320     0.27600
N1324       N  0.54572851  0.12842573  0.22848012    -0.35200
N1325       N  0.57296925  0.05285851  0.26238411    -0.55800
N1326       N  0.60238168  0.12781859  0.29730764    -0.35200
N1327       N  0.56702395  0.20263792  0.26584099    -0.55800
C1328       C  0.52943425  0.08888567  0.21648207     0.28400
C1329       C  0.52762451  0.16812990  0.21787047     0.28400
C1330       C  0.60787723  0.08731548  0.31067412     0.28400
C1331       C  0.60356299  0.16572656  0.31309835     0.28400
C1332       C  0.56732128  0.02625348  0.24173161     0.37000
C1333       C  0.60003654  0.02645985  0.27711669     0.37000
C1334       C  0.55740351  0.23181373  0.24668292     0.37000
C1335       C  0.58647941  0.23096595  0.28325962     0.37000
C1336       C  0.50096471  0.10381587  0.19786472    -0.20500
C1337       C  0.49987940  0.15353052  0.19869270    -0.20500
C1338       C  0.61244045  0.09948420  0.33528380    -0.20500
C1339       C  0.60949161  0.14901972  0.33683202    -0.20500
C1340       C  0.59017866  0.46625291  0.23294124    -0.21500
C1341       C  0.60519481  0.46361750  0.25680969    -0.21500
C1342       C  0.57002018  0.27894497  0.25222829    -0.21500
C1343       C  0.58837269  0.27839108  0.27529325    -0.21500
C1344       C  0.54151752  0.04001714  0.22121676    -0.16900
C1345       C  0.53692939  0.21717013  0.22429836    -0.16900
C1346       C  0.60222857  0.21500867  0.30639560    -0.16900
C1347       C  0.61364180  0.04033858  0.30096557    -0.16900
H1348       H  0.48327424  0.08148936  0.18470498     0.16000
H1349       H  0.48098450  0.17617526  0.18631541     0.16000
H1350       H  0.61804220  0.07518484  0.35048233     0.16000
H1351       H  0.61210881  0.17030831  0.35349391     0.16000
H1352       H  0.57351548  0.43748094  0.22291821     0.14300
H1353       H  0.60232143  0.43249878  0.26866084     0.14300
H1354       H  0.56700168  0.31056760  0.24075684     0.14300
H1355       H  0.60212779  0.30942254  0.28488065     0.14300
H1356       H  0.57124248  0.12872131  0.24151105     0.27600
H1357       H  0.60421527  0.12963429  0.27830547     0.27600
N1358       N  0.86171778  0.13483661  0.28899871    -0.35200
N1359       N  0.88770615  0.19597734  0.24668632    -0.55800
N1360       N  0.90518672  0.11063696  0.21723633    -0.35200
N1361       N  0.88148782  0.04978689  0.25945675    -0.55800
C1362       C  0.84421040  0.17817986  0.29572850     0.28400
C1363       C  0.83911772  0.10051501  0.30194897     0.28400
C1364       C  0.91929736  0.14453071  0.20102679     0.28400
C1365       C  0.91586611  0.06689959  0.20767852     0.28400
C1366       C  0.88070543  0.23054840  0.26386297     0.37000
C1367       C  0.90522599  0.21829927  0.22671991     0.37000
C1368       C  0.86875556  0.02752080  0.28041869     0.37000
C1369       C  0.89563133  0.01470959  0.24388628     0.37000
C1370       C  0.81087200  0.17121602  0.31348341    -0.20500
C1371       C  0.80786488  0.12237479  0.31746093    -0.20500
C1372       C  0.93781501  0.12189858  0.18056100    -0.20500
C1373       C  0.93598742  0.07314947  0.18480415    -0.20500
C1374       C  0.89466072  0.27501967  0.25494485    -0.21500
C1375       C  0.91025102  0.26727533  0.23151263    -0.21500
C1376       C  0.88669110  0.48572649  0.27624125    -0.21500
C1377       C  0.90683637  0.48358573  0.25347599    -0.21500
C1378       C  0.85707368  0.22390829  0.28624478    -0.16900
C1379       C  0.84535063  0.04992484  0.30005146    -0.16900
C1380       C  0.91005712  0.02151361  0.21931144    -0.16900
C1381       C  0.91753608  0.19529605  0.20430421    -0.16900
H1382       H  0.78984130  0.19827243  0.32230839     0.16000
H1383       H  0.78452499  0.10490396  0.32998202     0.16000
H1384       H  0.95248938  0.13865063  0.16447351     0.16000
H1385       H  0.94930268  0.04568920  0.17256234     0.16000
H1386       H  0.89305286  0.30968232  0.26420532     0.14300
H1387       H  0.92388241  0.29474294  0.21949922     0.14300
H1388       H  0.88905894  0.45816845  0.29015778     0.14300
H1389       H  0.92790397  0.45432282  0.24680978     0.14300
H1390       H  0.88938807  0.12952128  0.27736829     0.27600
H1391       H  0.88793773  0.11661265  0.23351626     0.27600
O1392       O  0.89452416  0.34088733  0.10476098    -0.78700
O1393       O  0.53472307  0.28835483  0.14347307    -0.78800
O1394       O  0.01385020  0.33316861  0.06279729    -0.78800
O1395       O  0.96771008  0.29819684  0.15151263    -0.78700
O1396       O  0.54597968  0.29528685  0.09416926    -0.78800
O1397       O  0.90282341  0.33565770  0.15363112    -0.78700
O1398       O  0.51587056  0.33708204  0.17303692    -0.78700
O1399       O  0.95626586  0.29935320  0.09800706    -0.78800
C1400       C  0.91374494  0.30391454  0.09585310     1.11000
C1401       C  0.52914830  0.29585535  0.16604639     1.10800
C1402       C  0.54990482  0.31091845  0.07251914     1.11000
C1403       C  0.92648424  0.29825475  0.15763151     1.10900
O1404       O  0.92472944  0.43862929  0.15536609    -0.78700
O1405       O  0.58649686  0.38822433  0.09914454    -0.78800
O1406       O  0.93700438  0.39064672  0.07464910    -0.78700
O1407       O  0.51211204  0.43301817  0.15352094    -0.78700
O1408       O  0.57302722  0.38721441  0.14914108    -0.78800
O1409       O  0.91684217  0.44087529  0.10426675    -0.78700
O1410       O  0.94983481  0.38459992  0.18100882    -0.78700
O1411       O  0.01581962  0.42352724  0.08163203    -0.78800
Co1412     Co  0.91505832  0.38937748  0.12940206     1.51500
Co1413     Co  0.55563150  0.34064312  0.12150752     1.51700
Co1414     Co  0.98970576  0.36096854  0.09188798     1.51600
Co1415     Co  0.99862842  0.36042478  0.15808118     1.51500
O1416       O  0.98529225  0.38345736  0.12562986    -1.40700
C1417       C  0.92992449  0.42426816  0.17715888     1.10900
C1418       C  0.57484113  0.42866712  0.09014445     1.11000
C1419       C  0.91486635  0.42745573  0.08200110     1.10900
C1420       C  0.55412822  0.42596167  0.15703899     1.10900
C1421       C  0.92393827  0.97755513  0.20569023    -0.15000
C1422       C  0.91303805  0.45360492  0.19775345    -0.30200
H1423       H  0.95071141  0.95580991  0.21371646     0.14000
H1424       H  0.88774357  0.43830280  0.20997337     0.14600
C1425       C  0.93413958  0.22603524  0.18370811    -0.15000
C1426       C  0.90756750  0.25935678  0.17308823    -0.30200
H1427       H  0.96928039  0.22227966  0.17800843     0.14000
H1428       H  0.87224221  0.26216741  0.17870619     0.14600
C1429       C  0.52678943  0.99946013  0.20473409    -0.15000
C1430       C  0.58107498  0.46011769  0.17251756    -0.30200
H1431       H  0.51362287  0.96705611  0.21342435     0.14000
H1432       H  0.61627839  0.45115477  0.17617412     0.14600
C1433       C  0.52412080  0.25645924  0.20688355    -0.15000
C1434       C  0.53843132  0.25626641  0.18343500    -0.30200
H1435       H  0.50576822  0.28762492  0.21397860     0.14000
H1436       H  0.55746315  0.22539633  0.17655241     0.14600
C1437       C  0.58667047  0.02159021  0.83184617    -0.15000
C1438       C  0.57448240  0.47464454  0.81527944    -0.30200
H1439       H  0.62319781  0.02564606  0.83324878     0.14000
H1440       H  0.54083312  0.46046942  0.81917599     0.14600
C1441       C  0.59186120  0.21193525  0.81295241    -0.15000
C1442       C  0.57701738  0.23114873  0.79186481    -0.30200
H1443       H  0.62280240  0.22522328  0.82140361     0.14000
H1444       H  0.54508655  0.21865539  0.78414456     0.14600
C1445       C  0.92699277  0.00670846  0.81877464    -0.15000
C1446       C  0.93815897  0.51204566  0.79205627    -0.30200
H1447       H  0.89814761  0.98556696  0.82504542     0.14000
H1448       H  0.97188235  0.52478197  0.78719410     0.14600
C1449       C  0.91343899  0.22433504  0.81982280    -0.15000
C1450       C  0.93265708  0.26533573  0.81127270    -0.30200
H1451       H  0.88351560  0.20909221  0.81118358     0.14000
H1452       H  0.96341416  0.27839954  0.82007547     0.14600
C1453       C  0.61705508  0.26228359  0.06271535    -0.15000
C1454       C  0.57978702  0.28563778  0.05488024    -0.30200
H1455       H  0.62256941  0.25828345  0.08232073     0.14000
H1456       H  0.57636354  0.29400725  0.03550333     0.14600
C1457       C  0.85189198  0.29285908  0.06684561    -0.15000
C1458       C  0.88653366  0.27242988  0.07937365    -0.30200
H1459       H  0.84504751  0.33103522  0.06971873     0.14000
H1460       H  0.89532412  0.23465984  0.07688008     0.14600
C1461       C  0.62994444  0.19039693  0.94193145    -0.15000
C1462       C  0.58717783  0.20714477  0.94399388    -0.30200
H1463       H  0.63871767  0.16713813  0.92649366     0.14000
H1464       H  0.57766327  0.23016131  0.95937045     0.14600
C1465       C  0.88750051  0.22197331  0.93092609    -0.15000
C1466       C  0.86546574  0.19593852  0.94811595    -0.30200
H1467       H  0.87807010  0.25923639  0.92748288     0.14000
H1468       H  0.87619491  0.15925310  0.95207271     0.14600
C1469       C  0.63322247  0.42650369  0.05846446    -0.15000
C1470       C  0.60623070  0.45332834  0.07314366    -0.30200
H1471       H  0.63405015  0.38746047  0.06049238     0.14000
H1472       H  0.60387653  0.49212196  0.07058671     0.14600
C1473       C  0.86611716  0.42587391  0.04600813    -0.15000
C1474       C  0.88205174  0.45031292  0.06551857    -0.30200
H1475       H  0.88093475  0.39139467  0.04072895     0.14000
H1476       H  0.86673797  0.48449406  0.07089100     0.14600
C1477       C  0.58195442  0.03725638  0.93063549    -0.15000
C1478       C  0.62748574  0.03576265  0.92767746    -0.30200
H1479       H  0.56658383  0.02595332  0.94775602     0.14000
H1480       H  0.61219407  0.56372285  0.93936312     0.14600
C1481       C  0.86029516  0.03293450  0.94411281    -0.15000
C1482       C  0.90215731  0.04862635  0.95027805    -0.30200
H1483       H  0.84390418  0.53574651  0.91459673     0.14000
H1484       H  0.90991355  0.05666338  0.96934302     0.14600
C1485       C  0.68424975  0.51428012  0.70149927    -0.15000
C1486       C  0.66131953  0.02912933  0.67298664    -0.30200
H1487       H  0.70255603  0.54264661  0.71114192     0.14000
H1488       H  0.64466663  0.00062432  0.66261963     0.14600
C1489       C  0.62047408  0.24731103  0.65640906    -0.15000
C1490       C  0.62103236  0.28861873  0.67005432    -0.30200
H1491       H  0.59433820  0.24573218  0.64239235     0.14000
H1492       H  0.59653849  0.31568877  0.66439239     0.14600
C1493       C  0.83229996  0.48306586  0.67746418    -0.15000
C1494       C  0.81095384  0.02023133  0.66842647    -0.30200
H1495       H  0.83694086  0.47251396  0.65837830     0.14000
H1496       H  0.83243215  0.99864392  0.65640159     0.14600
C1497       C  0.84366560  0.23282499  0.69393303    -0.15000
C1498       C  0.85861018  0.21682802  0.67194853    -0.30200
H1499       H  0.81201334  0.21876138  0.70135416     0.14000
H1500       H  0.89063473  0.22899181  0.66423963     0.14600
C1501       C  0.67506159  0.44983746  0.30485289    -0.15000
C1502       C  0.64109884  0.00635744  0.31551059    -0.30200
H1503       H  0.69286938  0.44239963  0.28773077     0.14000
H1504       H  0.67373091  0.01957176  0.32200118     0.14600
C1505       C  0.66009668  0.25246027  0.33358637    -0.15000
C1506       C  0.61782335  0.25261046  0.32425203    -0.30200
H1507       H  0.68232731  0.22196510  0.32982621     0.14000
H1508       H  0.59656395  0.28429895  0.32683946     0.14600
C1509       C  0.84353441  0.48361595  0.33100481    -0.15000
C1510       C  0.81791785  0.01751500  0.31600247    -0.30200
H1511       H  0.87912893  0.49282160  0.33317579     0.14000
H1512       H  0.78610579  0.00473304  0.30830860     0.14600
C1513       C  0.84168903  0.27915949  0.32161646    -0.15000
C1514       C  0.83756086  0.26797900  0.29768672    -0.30200
H1515       H  0.86230209  0.25694952  0.33358872     0.14000
H1516       H  0.81820600  0.29147037  0.28570157     0.14600
C1517       C  0.64272461  0.22566501  0.56135505    -0.15000
C1518       C  0.60373153  0.24710469  0.56783529    -0.30200
H1519       H  0.65096100  0.22155343  0.54199604     0.14000
H1520       H  0.59438669  0.24821045  0.58715004     0.14600
C1521       C  0.87342292  0.24463080  0.56958553    -0.15000
C1522       C  0.83752505  0.21862698  0.56218213    -0.30200
H1523       H  0.88035586  0.24769385  0.58910272     0.14000
H1524       H  0.83185096  0.21364080  0.54262088     0.14600
C1525       C  0.60013837  0.30794259  0.44332393    -0.15000
C1526       C  0.62158808  0.28051857  0.42647011    -0.30200
H1527       H  0.60528121  0.34679228  0.44359714     0.14000
H1528       H  0.61918117  0.24138716  0.42678173     0.14600
C1529       C  0.87169444  0.31981397  0.44735363    -0.15000
C1530       C  0.85515463  0.29542730  0.42788050    -0.30200
H1531       H  0.86001927  0.35635828  0.45095764     0.14000
H1532       H  0.86323218  0.25748247  0.42521067     0.14600
C1533       C  0.60778526  0.05020187  0.57194817    -0.15000
C1534       C  0.61495571  0.05111580  0.54742931    -0.30200
H1535       H  0.57515575  0.03866730  0.57914091     0.14000
H1536       H  0.64768637  0.06301472  0.54046089     0.14600
C1537       C  0.89526583  0.02913455  0.57071666    -0.15000
C1538       C  0.85032095  0.03531451  0.56910855    -0.30200
H1539       H  0.91153004  0.03872363  0.58794171     0.14000
H1540       H  0.83251520  0.02636925  0.55228130     0.14600
C1541       C  0.59892641  0.48071134  0.43265426    -0.15000
C1542       C  0.63193712  0.44952462  0.43887041    -0.30200
H1543       H  0.59598841  0.49230953  0.41372834     0.14000
H1544       H  0.63242406  0.43528708  0.45743643     0.14600
C1545       C  0.86552957  0.45492177  0.43713713    -0.15000
C1546       C  0.82132439  0.46777963  0.43604627    -0.30200
H1547       H  0.87785299  0.42860560  0.42383763     0.14000
H1548       H  0.80714334  0.49347405  0.44909457     0.14600
N1549       N  0.55080736  0.51746230  0.49457043    -0.35200
N1550       N  0.99842636  0.97411944  0.46721191    -0.55800
N1551       N  0.93216922  0.99057839  0.50685248    -0.35200
N1552       N  0.98290600  0.51395662  0.53637255    -0.55800
C1553       C  0.58447791  0.99537757  0.46817623     0.28400
C1554       C  0.57797222  0.53038081  0.51345879     0.28400
C1555       C  0.91116397  0.95682364  0.49304750     0.28400
C1556       C  0.89042824  0.48002827  0.52113252     0.28400
C1557       C  0.52122287  0.99536208  0.43838366     0.37000
C1558       C  0.95955430  0.96199664  0.45560326     0.37000
C1559       C  0.51797772  0.54550053  0.54495486     0.37000
C1560       C  0.94420931  0.52182624  0.54892727     0.37000
C1561       C  0.62518791  0.97769789  0.47726938    -0.20500
C1562       C  0.62269700  0.53116040  0.50559147    -0.20500
C1563       C  0.87914747  0.93289232  0.50728676    -0.20500
C1564       C  0.85272658  0.45170121  0.51628800    -0.20500
C1565       C  0.50364514  0.99703266  0.41485251    -0.21500
C1566       C  0.96740428  0.95866931  0.43048507    -0.21500
C1567       C  0.50252966  0.56943885  0.56576350    -0.21500
C1568       C  0.95169053  0.55334564  0.56836911    -0.21500
C1569       C  0.56789742  0.98916504  0.44392050    -0.16900
C1570       C  0.56369480  0.54389142  0.53729127    -0.16900
C1571       C  0.90334354  0.49727973  0.54463197    -0.16900
C1572       C  0.91830632  0.94978928  0.46758424    -0.16900
H1573       H  0.64992755  0.95550188  0.46780306     0.16000
H1574       H  0.65251182  0.54075086  0.51608311     0.16000
H1575       H  0.85710434  0.90361966  0.50164784     0.16000
H1576       H  0.82909825  0.43673149  0.52947128     0.16000
H1577       H  0.52242023  0.99813523  0.39773982     0.14300
H1578       H  0.94347740  0.94911054  0.41624941     0.14300
H1579       H  0.52208186  0.59079995  0.57862241     0.14300
H1580       H  0.92734297  0.56656432  0.58169564     0.14300
H1581       H  0.51592788  0.51511339  0.49505342     0.27600
H1582       H  0.95445305  0.01684802  0.50033387     0.27600
N1583       N  0.56072968  0.77436425  0.51264737    -0.35200
N1584       N  0.99388527  0.72467275  0.53010519    -0.55800
N1585       N  0.91886825  0.72317449  0.49477408    -0.35200
N1586       N  0.98535329  0.73554392  0.45550871    -0.55800
C1587       C  0.58100503  0.77651113  0.53478509     0.28400
C1588       C  0.58716349  0.79925971  0.49685649     0.28400
C1589       C  0.89766315  0.73179353  0.51648751     0.28400
C1590       C  0.89333061  0.74316491  0.47677741     0.28400
C1591       C  0.52206917  0.73412676  0.55867052     0.37000
C1592       C  0.95954204  0.70856800  0.54457169     0.37000
C1593       C  0.53772334  0.79310005  0.46034544     0.37000
C1594       C  0.94712546  0.72827648  0.44250705     0.37000
C1595       C  0.62054305  0.80340787  0.53321555    -0.20500
C1596       C  0.62453114  0.81776561  0.50918858    -0.20500
C1597       C  0.85815323  0.75746884  0.51236394    -0.20500
C1598       C  0.85572229  0.76531891  0.48739389    -0.20500
C1599       C  0.50759379  0.70187502  0.57642213    -0.21500
C1600       C  0.97704784  0.68648691  0.56525155    -0.21500
C1601       C  0.52862653  0.79604533  0.43543368    -0.21500
C1602       C  0.95792183  0.71989974  0.41799507    -0.21500
C1603       C  0.56730142  0.74965050  0.55537720    -0.16900
C1604       C  0.58028883  0.80189025  0.47132093    -0.16900
C1605       C  0.90359846  0.74116557  0.45119266    -0.16900
C1606       C  0.91270149  0.71527253  0.53971092    -0.16900
H1607       H  0.64464214  0.81065955  0.54771997     0.16000
H1608       H  0.65241910  0.83836851  0.50160098     0.16000
H1609       H  0.83412387  0.77020583  0.52600813     0.16000
H1610       H  0.82942389  0.78575901  0.47840620     0.16000
H1611       H  0.52797828  0.68290597  0.58973616     0.14300
H1612       H  0.95856614  0.66974727  0.58014643     0.14300
H1613       H  0.55248046  0.80148747  0.42056446     0.14300
H1614       H  0.93455497  0.71511871  0.40288922     0.14300
H1615       H  0.53415211  0.75137220  0.50796506     0.27600
H1616       H  0.94742630  0.70143670  0.49232068     0.27600
O1617       O  0.82256195  0.80855591  0.39450450    -0.78700
O1618       O  0.67819901  0.79692221  0.35081007    -0.78800
O1619       O  0.69213117  0.85605885  0.42933883    -0.78800
O1620       O  0.76536215  0.85061518  0.32731568    -0.78700
O1621       O  0.67838106  0.80142851  0.40127348    -0.78800
O1622       O  0.82926035  0.84499382  0.34873037    -0.78700
O1623       O  0.71983909  0.84081520  0.32584143    -0.78700
O1624       O  0.77470570  0.82379808  0.42433899    -0.78800
C1625       C  0.80605885  0.79822064  0.41519469     1.11000
C1626       C  0.69429449  0.80389955  0.32967142     1.10800
C1627       C  0.67272938  0.81723421  0.42280108     1.11000
C1628       C  0.80587753  0.83428877  0.33016094     1.10900
O1629       O  0.81788085  0.94244803  0.36952101    -0.78700
O1630       O  0.65113657  0.90225084  0.39803657    -0.78800
O1631       O  0.76343695  0.91422694  0.44264065    -0.78700
O1632       O  0.70301797  0.93203817  0.32370818    -0.78700
O1633       O  0.65151844  0.89921526  0.34832353    -0.78800
O1634       O  0.81974879  0.90360642  0.41601735    -0.78700
O1635       O  0.78335048  0.93125956  0.33503900    -0.78700
O1636       O  0.71212586  0.94553398  0.40441169    -0.78800
Co1637     Co  0.81527189  0.87378219  0.38131097     1.51500
Co1638     Co  0.67202617  0.84986562  0.37500255     1.51700
Co1639     Co  0.74567115  0.88550627  0.41239852     1.51600
Co1640     Co  0.73030766  0.89815582  0.34901849     1.51500
O1641       O  0.74365131  0.86205758  0.37819213    -1.40700
C1642       C  0.81032177  0.95545768  0.34780973     1.10900
C1643       C  0.66944084  0.94100847  0.40561209     1.11000
C1644       C  0.80507810  0.91801506  0.43717347     1.10900
C1645       C  0.66250165  0.92827950  0.33080086     1.10900
O1646       O  0.82014871  0.65855572  0.59664296    -0.78700
O1647       O  0.63930305  0.66115847  0.65332107    -0.78800
O1648       O  0.68851497  0.64537554  0.57213834    -0.78800
O1649       O  0.78930416  0.69624671  0.64688711    -0.78700
O1650       O  0.66127253  0.68269549  0.60482536    -0.78800
O1651       O  0.84266332  0.64274374  0.64216194    -0.78700
O1652       O  0.70016438  0.70404877  0.65236731    -0.78700
O1653       O  0.77806167  0.63238314  0.56708385    -0.78800
C1654       C  0.81074037  0.65775261  0.57419481     1.11000
C1655       C  0.65912734  0.69994827  0.65848331     1.10800
C1656       C  0.66569699  0.67927746  0.58183529     1.11000
C1657       C  0.83010002  0.68461048  0.64971808     1.10900
O1658       O  0.79000787  0.54999798  0.64176641    -0.78700
O1659       O  0.62543606  0.59833697  0.60515519    -0.78800
O1660       O  0.77506183  0.54212000  0.59361399    -0.78700
O1661       O  0.69855894  0.60322728  0.67339852    -0.78700
O1662       O  0.67582945  0.56349635  0.64117303    -0.78800
O1663       O  0.84534186  0.56454903  0.60220713    -0.78700
O1664       O  0.78844188  0.60293188  0.67117069    -0.78700
O1665       O  0.67986019  0.55016394  0.59377814    -0.78800
Co1666     Co  0.80127514  0.60449706  0.61854659     1.51500
Co1667     Co  0.67082963  0.62694561  0.62632303     1.51700
Co1668     Co  0.73093297  0.59559587  0.58536993     1.51600
Co1669     Co  0.74346855  0.65059487  0.65802804     1.51500
O1670       O  0.73811778  0.62965852  0.62129560    -1.40700
C1671       C  0.79485784  0.55998493  0.66418304     1.10900
C1672       C  0.63840697  0.56263521  0.59290691     1.11000
C1673       C  0.81770043  0.54037350  0.58881531     1.10900
C1674       C  0.68347160  0.56442367  0.66371392     1.10900
N1675       N  0.66237084  0.98394252  0.98866472    -0.35200
N1676       N  0.73908110  0.01687461  0.96126606    -0.55800
N1677       N  0.80023888  0.99627723  0.00327435    -0.35200
N1678       N  0.72216040  0.95948213  0.02948810    -0.55800
C1679       C  0.64548411  0.98562026  0.96560677     0.28400
C1680       C  0.63697941  0.95204568  0.00142884     0.28400
C1681       C  0.82970391  0.99899827  0.98413512     0.28400
C1682       C  0.82045174  0.96998503  0.02116574     0.28400
C1683       C  0.70535605  0.03592528  0.94739557     0.37000
C1684       C  0.77812140  0.03863822  0.95423322     0.37000
C1685       C  0.68119678  0.95149377  0.04004855     0.37000
C1686       C  0.75318638  0.95741330  0.04773353     0.37000
C1687       C  0.61005798  0.95280316  0.96348014    -0.20500
C1688       C  0.60409649  0.93230967  0.98625939    -0.20500
C1689       C  0.86901223  0.97400909  0.98997080    -0.20500
C1690       C  0.86329083  0.95604290  0.01334189    -0.20500
C1691       C  0.70658542  0.55023781  0.92927977    -0.21500
C1692       C  0.75313211  0.55389650  0.92845067    -0.21500
C1693       C  0.68637771  0.94437926  0.06508560    -0.21500
C1694       C  0.73183442  0.94838341  0.06993833    -0.21500
C1695       C  0.65979917  0.01893743  0.94743369    -0.16900
C1696       C  0.64036578  0.94422507  0.02690385    -0.16900
C1697       C  0.80073925  0.95773405  0.04416431    -0.16900
C1698       C  0.82215166  0.02465243  0.96194406    -0.16900
H1699       H  0.59014977  0.94474328  0.94731550     0.16000
H1700       H  0.57836348  0.90609442  0.99111106     0.16000
H1701       H  0.89857258  0.96832495  0.97849272     0.16000
H1702       H  0.88745625  0.93395672  0.02311074     0.16000
H1703       H  0.68334576  0.56974681  0.91763114     0.14300
H1704       H  0.77238906  0.57652008  0.91606536     0.14300
H1705       H  0.66059083  0.93527753  0.07845512     0.14300
H1706       H  0.74750436  0.94354622  0.08769297     0.14300
H1707       H  0.68592119  0.00786968  0.99618267     0.27600
H1708       H  0.76934538  0.01440396  0.00468751     0.27600
N1709       N  0.80437043  0.75090576  0.99843567    -0.35200
N1710       N  0.73618798  0.73890524  0.96071832    -0.55800
N1711       N  0.66564059  0.74514781  0.99914002    -0.35200
N1712       N  0.73323831  0.76266480  0.03581387    -0.55800
C1713       C  0.82901478  0.75556652  0.97753088     0.28400
C1714       C  0.82753103  0.77319084  0.01671027     0.28400
C1715       C  0.64084942  0.74936120  0.97840255     0.28400
C1716       C  0.63919607  0.75942293  0.01829067     0.28400
C1717       C  0.77317050  0.72270030  0.94832886     0.37000
C1718       C  0.69967234  0.72232089  0.94832775     0.37000
C1719       C  0.77094447  0.75953840  0.04980907     0.37000
C1720       C  0.69750347  0.75174315  0.05054253     0.37000
C1721       C  0.86827387  0.78119045  0.98245970    -0.20500
C1722       C  0.86682530  0.79338350  0.00703087    -0.20500
C1723       C  0.59807234  0.76689023  0.98442273    -0.20500
C1724       C  0.59721592  0.77375664  0.00948804    -0.20500
C1725       C  0.76016073  0.69720076  0.92757146    -0.21500
C1726       C  0.71358639  0.69715790  0.92747828    -0.21500
C1727       C  0.75925288  0.74629045  0.07348235    -0.21500
C1728       C  0.71293394  0.74024951  0.07380451    -0.21500
C1729       C  0.81845066  0.73294409  0.95495212    -0.16900
C1730       C  0.81522263  0.77229154  0.04198444    -0.16900
C1731       C  0.65128775  0.75644857  0.04349451    -0.16900
C1732       C  0.65396670  0.73073229  0.95515111    -0.16900
H1733       H  0.89510157  0.79052758  0.96975475     0.16000
H1734       H  0.89232576  0.81427715  0.01656111     0.16000
H1735       H  0.56979620  0.77323646  0.97230750     0.16000
H1736       H  0.56848062  0.78697924  0.01995403     0.16000
H1737       H  0.78190151  0.68073122  0.91382691     0.14300
H1738       H  0.69247455  0.68038180  0.91362540     0.14300
H1739       H  0.78183948  0.74120720  0.08887157     0.14300
H1740       H  0.69300579  0.72922368  0.08952648     0.14300
H1741       H  0.77622180  0.72856721  0.00063636     0.27600
H1742       H  0.69644581  0.72703438  0.00042362     0.27600
O1743       O  0.55741691  0.57033045  0.90705955    -0.78700
O1744       O  0.54393029  0.66005110  0.82189890    -0.78800
O1745       O  0.51962004  0.52064533  0.85142777    -0.78800
O1746       O  0.51551710  0.72556623  0.90677214    -0.78700
O1747       O  0.56448546  0.58413439  0.85136295    -0.78800
O1748       O  0.55764549  0.66332550  0.90795933    -0.78700
O1749       O  0.54326134  0.70548993  0.85628248    -0.78700
O1750       O  0.51212985  0.50944557  0.90223051    -0.78800
C1751       C  0.54932245  0.52673907  0.91051785     1.11000
C1752       C  0.55673377  0.69723214  0.83387127     1.10800
C1753       C  0.55699321  0.54043548  0.84527996     1.11000
C1754       C  0.55169401  0.70682537  0.91364827     1.10900
O1755       O  0.93215480  0.66703115  0.91839943    -0.78700
O1756       O  0.97594605  0.58339548  0.82466835    -0.78800
O1757       O  0.92204545  0.55967808  0.90199578    -0.78700
O1758       O  0.96338707  0.73412517  0.85374405    -0.78700
O1759       O  0.94603529  0.67033155  0.83303820    -0.78800
O1760       O  0.96483906  0.58630092  0.93142624    -0.78700
O1761       O  0.95479057  0.73324250  0.90235996    -0.78700
O1762       O  0.92825377  0.55624120  0.85264396    -0.78800
Co1763     Co  0.99237301  0.64058187  0.91135903     1.51500
Co1764     Co  0.00170197  0.63785940  0.84483763     1.51700
Co1765     Co  0.97344868  0.55305274  0.87946367     1.51600
Co1766     Co  0.00278674  0.70531621  0.87944724     1.51500
O1767       O  0.97640553  0.62888555  0.87770375    -1.40700
C1768       C  0.92593921  0.71090597  0.91511803     1.10900
C1769       C  0.94094115  0.55902308  0.83045675     1.11000
C1770       C  0.92826855  0.56621390  0.92448110     1.10900
C1771       C  0.94233885  0.71496169  0.83629975     1.10900
N1772       N  0.60296260  0.87810276  0.78546345    -0.35200
N1773       N  0.61380026  0.81248311  0.74375922    -0.55800
N1774       N  0.63720919  0.89429405  0.71217478    -0.35200
N1775       N  0.62324038  0.96054379  0.75351559    -0.55800
C1776       C  0.59065647  0.83628301  0.79651265     0.28400
C1777       C  0.59227333  0.91468445  0.80103922     0.28400
C1778       C  0.65372843  0.85672295  0.69877541     0.28400
C1779       C  0.65725771  0.93502493  0.70352210     0.28400
C1780       C  0.60142715  0.77967155  0.76079402     0.37000
C1781       C  0.62222594  0.78750054  0.72287092     0.37000
C1782       C  0.60699498  0.98528461  0.77318750     0.37000
C1783       C  0.63059713  0.99326425  0.73555627     0.37000
C1784       C  0.57419168  0.84653516  0.81987583    -0.20500
C1785       C  0.57538651  0.89563169  0.82274058    -0.20500
C1786       C  0.68375188  0.87403868  0.68119021    -0.20500
C1787       C  0.68640980  0.92304260  0.68440809    -0.20500
C1788       C  0.60176954  0.73366955  0.75064689    -0.21500
C1789       C  0.61512873  0.73847767  0.72684022    -0.21500
C1790       C  0.61260528  0.51751888  0.76925778    -0.21500
C1791       C  0.63183787  0.52429225  0.74648581    -0.21500
C1792       C  0.59023742  0.78961956  0.78554187    -0.16900
C1793       C  0.59304593  0.96482517  0.79581568    -0.16900
C1794       C  0.64973124  0.98287611  0.71218098    -0.16900
C1795       C  0.64247127  0.80721495  0.70154707    -0.16900
H1796       H  0.08167559  0.82010927  0.83682423     0.16000
H1797       H  0.09707989  0.91143136  0.84569048     0.16000
H1798       H  0.70266272  0.85363994  0.66759253     0.16000
H1799       H  0.70820401  0.94685985  0.67401591     0.16000
H1800       H  0.59479283  0.69966429  0.75963285     0.14300
H1801       H  0.62106592  0.70828211  0.71463827     0.14300
H1802       H  0.59569017  0.54500922  0.78009939     0.14300
H1803       H  0.63251426  0.55801624  0.73652576     0.14300
H1804       H  0.61695422  0.88159936  0.76814684     0.27600
H1805       H  0.61110982  0.89271143  0.72506630     0.27600
N1806       N  0.85839411  0.88169446  0.70296266    -0.35200
N1807       N  0.89218987  0.80273046  0.73445411    -0.55800
N1808       N  0.91102604  0.87383638  0.77293061    -0.35200
N1809       N  0.87988334  0.95206791  0.74113577    -0.55800
C1810       C  0.84786449  0.84283743  0.68868946     0.28400
C1811       C  0.83554799  0.92079030  0.69406713     0.28400
C1812       C  0.92792249  0.83325177  0.78334310     0.28400
C1813       C  0.93114237  0.91224292  0.78409886     0.28400
C1814       C  0.87869871  0.77545390  0.71501711     0.37000
C1815       C  0.90070864  0.77179968  0.75316847     0.37000
C1816       C  0.85838776  0.98250888  0.72573833     0.37000
C1817       C  0.89725711  0.97942765  0.75944930     0.37000
C1818       C  0.81972505  0.85824175  0.66984436    -0.24900
C1819       C  0.81125063  0.90647931  0.67354842    -0.20500
C1820       C  0.95890887  0.84605000  0.80135098    -0.20500
C1821       C  0.96105971  0.89564716  0.80176025    -0.20500
C1822       C  0.87952077  0.72697754  0.72149166    -0.21500
C1823       C  0.89307747  0.72475927  0.74548788    -0.21500
C1824       C  0.89210861  0.51716913  0.71830589    -0.21500
C1825       C  0.91161819  0.52267203  0.74101329    -0.21500
C1826       C  0.85978203  0.79318838  0.69274062    -0.16900
C1827       C  0.83509694  0.96887249  0.70402714    -0.16900
C1828       C  0.92284192  0.96198471  0.77943070    -0.16900
C1829       C  0.91667057  0.78484729  0.77689534    -0.16900
H1830       H  0.80510970  0.83683256  0.65520459     0.16000
H1831       H  0.78876963  0.92791592  0.66241288     0.16000
H1832       H  0.97893215  0.82220038  0.81265023     0.16000
H1833       H  0.98254668  0.91701531  0.81368015     0.16000
H1834       H  0.86913531  0.69608725  0.71068069     0.14300
H1835       H  0.89625032  0.69200263  0.75608767     0.14300
H1836       H  0.89145703  0.54423316  0.70405737     0.14300
H1837       H  0.92814179  0.55502400  0.74775406     0.14300
H1838       H  0.88096555  0.88135696  0.71747136     0.27600
H1839       H  0.88444033  0.87488383  0.76047927     0.27600
N1840       N  0.60216697  0.61783569  0.20996712    -0.35200
N1841       N  0.62057187  0.53796713  0.24290890    -0.55800
N1842       N  0.64288742  0.61009564  0.28107236    -0.35200
N1843       N  0.63272182  0.68960535  0.24668742    -0.55800
C1844       C  0.59560293  0.57990080  0.19447285     0.28400
C1845       C  0.60374078  0.65852402  0.19624350     0.28400
C1846       C  0.65504972  0.56883150  0.29240365     0.28400
C1847       C  0.65937219  0.64716446  0.29467732     0.28400
C1848       C  0.59960983  0.51261826  0.22483796     0.37000
C1849       C  0.62311994  0.50850448  0.26264311     0.37000
C1850       C  0.61370860  0.71940915  0.23000806     0.37000
C1851       C  0.63447070  0.71472093  0.26809493     0.37000
C1852       C  0.59335561  0.59669759  0.17058480    -0.20500
C1853       C  0.59862764  0.64609316  0.17167841    -0.20500
C1854       C  0.67984812  0.57989678  0.31332962    -0.20500
C1855       C  0.68219339  0.62922599  0.31484501    -0.20500
C1856       C  0.59018207  0.98272848  0.24351654    -0.21500
C1857       C  0.61148510  0.98315392  0.26571683    -0.21500
C1858       C  0.60397439  0.76370608  0.24089229    -0.21500
C1859       C  0.61724689  0.76074631  0.26490811    -0.21500
C1860       C  0.58823083  0.53103170  0.20130584    -0.16900
C1861       C  0.60378225  0.70684175  0.20531172    -0.16900
C1862       C  0.65134307  0.69669270  0.29055062    -0.16900
C1863       C  0.64099801  0.52166167  0.28592084    -0.16900
H1864       H  0.58771458  0.57560383  0.15408385     0.16000
H1865       H  0.59740523  0.67034417  0.15617063     0.16000
H1866       H  0.69385066  0.55502759  0.32656826     0.16000
H1867       H  0.69792662  0.64952993  0.32953598     0.16000
H1868       H  0.59251943  0.95421509  0.22988745     0.14300
H1869       H  0.63343307  0.95482838  0.27232617     0.14300
H1870       H  0.58755356  0.79465711  0.23281828     0.14300
H1871       H  0.61320961  0.78887001  0.27861646     0.14300
H1872       H  0.59902636  0.61689598  0.22891393     0.27600
H1873       H  0.61952011  0.61286115  0.26696795     0.27600
N1874       N  0.83702830  0.63300937  0.28757280    -0.35200
N1875       N  0.85215924  0.70177886  0.24775975    -0.55800
N1876       N  0.88788077  0.62326342  0.21767925    -0.35200
N1877       N  0.86888539  0.55355720  0.25619602    -0.55800
C1878       C  0.81772656  0.67316907  0.29748986     0.28400
C1879       C  0.82352133  0.59439840  0.30109694     0.28400
C1880       C  0.88440513  0.65837174  0.20057880     0.28400
C1881       C  0.89522952  0.58126562  0.20551798     0.28400
C1882       C  0.84067486  0.73391145  0.26553442     0.37000
C1883       C  0.86570266  0.72779246  0.22805707     0.37000
C1884       C  0.86419452  0.52963000  0.27764549     0.37000
C1885       C  0.89460232  0.52538922  0.24127216     0.37000
C1886       C  0.79322581  0.65981822  0.31823809    -0.20500
C1887       C  0.79638840  0.61041098  0.32028203    -0.20500
C1888       C  0.88955745  0.63857688  0.17733949    -0.20500
C1889       C  0.89601351  0.58994006  0.18040087    -0.20500
C1890       C  0.84552910  0.78058332  0.25657847    -0.21500
C1891       C  0.86197134  0.77664046  0.23308159    -0.21500
C1892       C  0.87542497  0.97813034  0.27828393    -0.21500
C1893       C  0.89239618  0.97000813  0.25521994    -0.21500
C1894       C  0.82271085  0.72166813  0.28896997    -0.16900
C1895       C  0.83734946  0.54553137  0.29774779    -0.16900
C1896       C  0.90465949  0.53600975  0.21637878    -0.16900
C1897       C  0.88005959  0.70829511  0.20527647    -0.16900
H1898       H  0.77503468  0.68297379  0.33092388     0.16000
H1899       H  0.78128105  0.58891994  0.33470757     0.16000
H1900       H  0.88907698  0.65734777  0.15996005     0.16000
H1901       H  0.90127817  0.56407989  0.16569149     0.16000
H1902       H  0.83736305  0.81438841  0.26553028     0.14300
H1903       H  0.86935241  0.80645458  0.22092710     0.14300
H1904       H  0.86741497  0.95054285  0.29162870     0.14300
H1905       H  0.90030735  0.93486400  0.24753201     0.14300
H1906       H  0.86109819  0.63259164  0.27368981     0.27600
H1907       H  0.89141669  0.62854249  0.23643791     0.27600
O1908       O  0.92361473  0.80045433  0.10144649    -0.78700
O1909       O  0.57463867  0.85090240  0.15543344    -0.78800
O1910       O  0.03053759  0.85324389  0.06518521    -0.78800
O1911       O  0.93553328  0.81055034  0.15514665    -0.78700
O1912       O  0.58871935  0.85058024  0.10597615    -0.78800
O1913       O  0.86889267  0.82988288  0.14015521    -0.78700
O1914       O  0.52547155  0.82215860  0.18403207    -0.78700
O1915       O  0.93802070  0.84869918  0.06982070    -0.78800
C1916       C  0.92096746  0.81008458  0.07867676     1.11000
C1917       C  0.56507593  0.82365935  0.17463396     1.10800
C1918       C  0.58094394  0.80911730  0.09731055     1.11000
C1919       C  0.89228079  0.80436834  0.15469133     1.10900
O1920       O  0.91424813  0.91569329  0.14809347    -0.78700
O1921       O  0.54478960  0.94063821  0.09701895    -0.78800
O1922       O  0.93833664  0.94402058  0.09305208    -0.78700
O1923       O  0.52413258  0.91242471  0.17414806    -0.78700
O1924       O  0.53251756  0.95635761  0.14293552    -0.78800
O1925       O  0.88506522  0.89224790  0.10083852    -0.78700
O1926       O  0.94650476  0.89134856  0.18245344    -0.78700
O1927       O  0.03232327  0.94442274  0.09013850    -0.78800
Co1928     Co  0.92314024  0.85533765  0.12500919     1.51500
Co1929     Co  0.55431684  0.89872754  0.12581150     1.51700
Co1930     Co  0.98473612  0.89668232  0.08202540     1.51600
Co1931     Co  0.97291829  0.87352297  0.15214829     1.51500
O1932       O  0.98962350  0.86706620  0.11637410    -1.40700
C1933       C  0.92105696  0.92083552  0.17143425     1.10900
C1934       C  0.55027377  0.92261328  0.07594181     1.11000
C1935       C  0.89760367  0.93098436  0.09059808     1.10900
C1936       C  0.52984808  0.95375195  0.16539379     1.10900
C1937       C  0.92656928  0.49958803  0.19994556    -0.15000
C1938       C  0.90408109  0.96352310  0.18466525    -0.30200
H1939       H  0.95126319  0.51282287  0.18673516     0.14000
H1940       H  0.87759855  0.98538261  0.17648326     0.14600
C1941       C  0.89772983  0.74167233  0.18620902    -0.15000
C1942       C  0.87139900  0.76790360  0.17109177    -0.30200
H1943       H  0.93442593  0.74468956  0.18509742     0.14000
H1944       H  0.83472419  0.76442076  0.17188868     0.14600
C1945       C  0.56286885  0.49942722  0.18352241    -0.15000
C1946       C  0.53607881  0.99793202  0.18061155    -0.30200
H1947       H  0.52807217  0.50945417  0.17947195     0.14000
H1948       H  0.55063118  0.02952108  0.17183040     0.14600
C1949       C  0.58225814  0.74373045  0.18929274    -0.15000
C1950       C  0.59791337  0.78881714  0.18476357    -0.30200
H1951       H  0.54926456  0.73352435  0.18199151     0.14000
H1952       H  0.63172467  0.80011652  0.19013959     0.14600
C1953       C  0.58858971  0.51411934  0.82809140    -0.15000
C1954       C  0.56784514  0.99604875  0.81340157    -0.30200
H1955       H  0.62211092  0.52892942  0.82463757     0.14000
H1956       H  0.53118331  0.99404416  0.81214666     0.14600
C1957       C  0.58398579  0.73393607  0.82141268    -0.15000
C1958       C  0.57028604  0.74859862  0.79926615    -0.30200
H1959       H  0.61045919  0.75310795  0.83127822     0.14000
H1960       H  0.54303918  0.72911163  0.79021005     0.14600
C1961       C  0.91688093  0.52961854  0.81203674    -0.15000
C1962       C  0.94365922  0.99865207  0.79610624    -0.30200
H1963       H  0.88366920  0.51544003  0.81692977     0.14000
H1964       H  0.97232017  0.01946823  0.78935271     0.14600
C1965       C  0.91843263  0.74667300  0.81872602    -0.15000
C1966       C  0.92814051  0.74484148  0.79446798    -0.30200
H1967       H  0.90072886  0.77802087  0.82605887     0.14000
H1968       H  0.94739104  0.71426365  0.78741906     0.14600
C1969       C  0.61388225  0.76121430  0.06249698    -0.15000
C1970       C  0.61902167  0.78678317  0.08345766    -0.30200
H1971       H  0.57982757  0.74997951  0.05749936     0.14000
H1972       H  0.65200730  0.80239500  0.08733328     0.14600
C1973       C  0.84713697  0.79052632  0.06131807    -0.15000
C1974       C  0.89189026  0.78059269  0.06242399    -0.30200
H1975       H  0.83277105  0.81435357  0.07525306     0.14000
H1976       H  0.90768604  0.75667369  0.04905714     0.14600
C1977       C  0.61871743  0.70880070  0.93936500    -0.15000
C1978       C  0.58594640  0.73350742  0.92789460    -0.30200
H1979       H  0.62079952  0.66983590  0.93699925     0.14000
H1980       H  0.58349956  0.77250207  0.92973088     0.14600
C1981       C  0.88689623  0.73586966  0.92707936    -0.15000
C1982       C  0.85590535  0.71085478  0.94018124    -0.30200
H1983       H  0.88436530  0.77491045  0.92586858     0.14000
H1984       H  0.85767827  0.67164256  0.94042662     0.14600
C1985       C  0.60073500  0.92335090  0.03999004    -0.15000
C1986       C  0.57905956  0.94793590  0.05793499    -0.30200
H1987       H  0.59241598  0.88577024  0.03627191     0.14000
H1988       H  0.58863700  0.98513337  0.06176055     0.14600
C1989       C  0.82929067  0.93640508  0.06418125    -0.15000
C1990       C  0.86768728  0.95665181  0.07292890    -0.30200
H1991       H  0.81750174  0.90278545  0.07218231     0.14000
H1992       H  0.87946556  0.99056729  0.06524528     0.14600
C1993       C  0.58219801  0.49937815  0.92617022    -0.15000
C1994       C  0.61288113  0.52450230  0.93992265    -0.30200
H1995       H  0.58145998  0.46019137  0.92653601     0.14000
H1996       H  0.64132082  0.04891336  0.91046974     0.14600
C1997       C  0.85177236  0.53442890  0.93404805    -0.15000
C1998       C  0.89267874  0.55069337  0.94198377    -0.30200
H1999       H  0.85241436  0.02830270  0.92476243     0.14000
H2000       H  0.90012792  0.55206758  0.96148799     0.14600
C2001       C  0.66664216  0.02490449  0.69747403    -0.15000
C2002       C  0.67175162  0.52115854  0.67811758    -0.30200
H2003       H  0.68291942  0.05422886  0.70743849     0.14000
H2004       H  0.65205719  0.49336277  0.66885308     0.14600
C2005       C  0.63623842  0.73923638  0.67171593    -0.15000
C2006       C  0.66126535  0.77306587  0.68310979    -0.30200
H2007       H  0.59975984  0.73753892  0.67456253     0.14000
H2008       H  0.69779972  0.77387200  0.68034376     0.14600
C2009       C  0.80719695  0.00806505  0.69222158    -0.15000
C2010       C  0.80971077  0.52417889  0.68271731    -0.30200
H2011       H  0.78629015  0.03063383  0.70410167     0.14000
H2012       H  0.80439849  0.53398212  0.70185961     0.14600
C2013       C  0.83888364  0.75718295  0.67543101    -0.15000
C2014       C  0.85921042  0.71892562  0.66398441    -0.30200
H2015       H  0.80268444  0.76234459  0.67292200     0.14000
H2016       H  0.89511439  0.71176434  0.66641578     0.14600
C2017       C  0.62877372  0.96058530  0.32014269    -0.15000
C2018       C  0.64440020  0.48533062  0.30579781    -0.30200
H2019       H  0.59501153  0.94742907  0.31579739     0.14000
H2020       H  0.62750653  0.49340443  0.32312110     0.14600
C2021       C  0.68554109  0.76996058  0.30919821    -0.15000
C2022       C  0.65950526  0.73050061  0.31151697    -0.30200
H2023       H  0.70045948  0.77821922  0.29142120     0.14000
H2024       H  0.64597700  0.72098688  0.32944054     0.14600
C2025       C  0.83377933  0.99759262  0.33679578    -0.15000
C2026       C  0.81828560  0.50808288  0.31463800    -0.30200
H2027       H  0.86548330  0.01016085  0.34467499     0.14000
H2028       H  0.78228897  0.50022290  0.31302223     0.14600
C2029       C  0.82598008  0.80027864  0.31216193    -0.15000
C2030       C  0.80303246  0.76096034  0.30466177    -0.30200
H2031       H  0.86167684  0.80402156  0.30750351     0.14000
H2032       H  0.76990507  0.75486552  0.31236233     0.14600
C2033       C  0.63998510  0.71123938  0.56558245    -0.15000
C2034       C  0.60202108  0.73364132  0.57330312    -0.30200
H2035       H  0.64744648  0.70908651  0.54604301     0.14000
H2036       H  0.59270738  0.73237056  0.59261155     0.14600
C2037       C  0.87901657  0.70399500  0.55981965    -0.15000
C2038       C  0.83901856  0.68213718  0.55524857    -0.30200
H2039       H  0.88954611  0.70799514  0.57880147     0.14000
H2040       H  0.82916175  0.67598962  0.53629213     0.14600
C2041       C  0.61783844  0.82110166  0.45620751    -0.15000
C2042       C  0.63879206  0.79464377  0.43886252    -0.30200
H2043       H  0.62845294  0.85808941  0.45975842     0.14000
H2044       H  0.62756933  0.75800270  0.43497772     0.14600
C2045       C  0.87409105  0.76490781  0.43257264    -0.15000
C2046       C  0.82868093  0.76205583  0.43076398    -0.30200
H2047       H  0.89182468  0.78855156  0.41981330     0.14000
H2048       H  0.80902117  0.74041759  0.44351200     0.14600
C2049       C  0.60636974  0.53971327  0.57619096    -0.15000
C2050       C  0.59896343  0.56096998  0.55451987    -0.30200
H2051       H  0.58589021  0.50941988  0.58230775     0.14000
H2052       H  0.62016362  0.59112333  0.54885124     0.14600
C2053       C  0.87338475  0.49284077  0.56638611    -0.15000
C2054       C  0.83316349  0.51457300  0.56675463    -0.30200
H2055       H  0.88979389  0.48608820  0.58390956     0.14000
H2056       H  0.81574697  0.52246064  0.54970027     0.14600
C2057       C  0.59691913  0.96593761  0.42449124    -0.15000
C2058       C  0.64119622  0.97581110  0.41997428    -0.30200
H2059       H  0.58082215  0.93690591  0.41420753     0.14000
H2060       H  0.65772187  0.00564982  0.42938332     0.14600
C2061       C  0.88219979  0.92670887  0.45260445    -0.15000
C2062       C  0.83785357  0.93781270  0.45479710    -0.30200
H2063       H  0.89287113  0.90189114  0.43816924     0.14000
H2064       H  0.82588754  0.96225987  0.46906556     0.14600
loop_ 
_geom_bond_atom_site_label_1 
_geom_bond_atom_site_label_2 
_geom_bond_distance 
_geom_bond_site_symmetry_2 
_ccdc_geom_bond_type 
N1            C6   1.350       .  A
N1          C521   1.350   1_545  A
N1           H33   1.039       .  S
N2           C10   1.355       .  A
N2         C1041   1.358       .  A
N3            C7   1.356       .  A
N3          C524   1.360       .  A
N3           H34   1.041       .  S
N4           C12   1.348       .  A
N4         C1043   1.350       .  A
C5          N517   1.350       .  A
C5           C13   1.392       .  A
C5           C21   1.422       .  A
C6           C22   1.404       .  A
C6           C14   1.384       .  A
C7           C15   1.389       .  A
C7           C24   1.425       .  A
C8          N519   1.356       .  A
C8           C23   1.418       .  A
C8           C16   1.385   1_545  A
C9         N1034   1.357   1_455  A
C9           C21   1.427       .  A
C9           C17   1.387       .  A
C10          C24   1.426       .  A
C10          C18   1.389       .  A
C11        N1036   1.345       .  A
C11          C19   1.385       .  A
C11          C22   1.403       .  A
C12          C20   1.386       .  A
C12          C23   1.405       .  A
C13         C530   1.369       .  A
C13          H25   1.081       .  S
C14         C529   1.370   1_545  A
C14          H26   1.082       .  S
C15         C532   1.377       .  A
C15          H27   1.082       .  S
C16         C531   1.385       .  A
C16          H28   1.082       .  S
C17        C1050   1.374   1_455  A
C17          H29   1.081       .  S
C18        C1049   1.373       .  A
C18          H30   1.082       .  S
C19        C1052   1.370   1_455  A
C19          H31   1.082       .  S
C20        C1051   1.371       .  A
C20          H32   1.082       .  S
C21         C509   1.495       .  S
C22         C502   1.476       .  S
C23         C505   1.497       .  S
C24         C513   1.501       .  S
N35          C40   1.356       .  A
N35          C39   1.358       .  A
N35          H67   1.040       .  S
N36          C44   1.349       .  A
N36        C1075   1.351       .  A
N37          C42   1.354       .  A
N37          C41   1.351       .  A
N37          H68   1.040       .  S
N38          C46   1.351       .  A
N38        C1077   1.349       .  A
C39          C47   1.387       .  A
C39          C55   1.423       .  A
C40          C56   1.420       .  A
C40          C48   1.388       .  A
C41          C49   1.385       .  A
C41          C58   1.412       .  A
C42          C57   1.418       .  A
C42          C50   1.389       .  A
C43        N1068   1.355   1_455  A
C43          C55   1.415       .  A
C43          C51   1.386       .  A
C44          C58   1.407       .  A
C44          C52   1.387       .  A
C45        N1070   1.349   1_455  A
C45          C53   1.387       .  A
C45          C56   1.410       .  A
C46          C54   1.387       .  A
C46          C57   1.412       .  A
C47          C48   1.377       .  A
C47          H59   1.082       .  S
C48          H60   1.083       .  S
C49          C50   1.380       .  A
C49          H61   1.082       .  S
C50          H62   1.082       .  S
C51        C1084   1.368   1_455  A
C51          H63   1.082       .  S
C52        C1083   1.369       .  A
C52          H64   1.082       .  S
C53        C1086   1.366   1_455  A
C53          H65   1.082       .  S
C54        C1085   1.370       .  A
C54          H66   1.081       .  S
C55         C486   1.504       .  S
C56         C493   1.479       .  S
C57         C497   1.485       .  S
C58         C489   1.481       .  S
O69          C77   1.261       .  A
O69         Co89   2.005       .  S
O70          C78   1.279       .  A
O70         Co90   2.050       .  S
O71          C79   1.259       .  A
O71         Co91   1.969       .  S
O72          C80   1.267       .  A
O72         Co92   1.896       .  S
O73          C79   1.270       .  A
O73         Co90   2.008       .  S
O74          C80   1.290       .  A
O74         Co89   2.095       .  S
O75          C78   1.262       .  A
O75         Co92   1.985       .  S
O76          C77   1.255       .  A
O76         Co91   1.980       .  S
C77         C498   1.471       .  S
C78         C473   1.490       .  S
C79         C494   1.473       .  S
C80         C481   1.471       .  S
O81          C94   1.267       .  A
O81         Co89   1.917       .  S
O82          C95   1.262       .  A
O82         Co90   1.962       .  S
O83          C96   1.280       .  A
O83         Co91   2.034       .  S
O84          C97   1.266       .  A
O84         Co92   2.023       .  S
O85          C97   1.252       .  A
O85         Co90   1.962       .  S
O86          C96   1.271       .  A
O86         Co89   1.977       .  S
O87          C94   1.291       .  A
O87         Co92   2.095       .  S
O88          C95   1.271       .  A
O88         Co91   2.017       .  S
Co89         O93   2.024       .  S
Co90         O93   2.050       .  S
Co91         O93   2.040       .  S
Co92         O93   2.010       .  S
C94         C477   1.484       .  S
C95         C510   1.471       .  S
C96         C514   1.478       .  S
C97         C469   1.473       .  S
O98         C106   1.253       .  A
O98        Co118   1.972       .  S
O99         C107   1.273       .  A
O99        Co119   2.039       .  S
O100        C108   1.248       .  A
O100       Co120   1.972       .  S
O101        C109   1.254       .  A
O101       Co121   1.945       .  S
O102        C108   1.256       .  A
O102       Co119   1.997       .  S
O103        C109   1.274       .  A
O103       Co118   2.045       .  S
O104        C107   1.253       .  A
O104       Co121   1.952       .  S
O105        C106   1.252       .  A
O105       Co120   1.983       .  S
C106        C490   1.469       .  S
C107        C457   1.486       .  S
C108        C485   1.480       .  S
C109        C466   1.480       .  S
O110        C123   1.259       .  A
O110       Co118   1.993       .  S
O111        C124   1.271       .  A
O111       Co119   1.877       .  S
O112        C125   1.291       .  A
O112       Co120   2.039       .  S
O113        C126   1.267       .  A
O113       Co121   2.026       .  S
O114        C126   1.251       .  A
O114       Co119   1.978       .  S
O115        C125   1.278       .  A
O115       Co118   1.921       .  S
O116        C123   1.265       .  A
O116       Co121   2.011       .  S
O117        C124   1.299       .  A
O117       Co120   2.059       .  S
Co118       O122   1.972       .  S
Co119       O122   1.940       .  S
Co120       O122   2.243       .  S
Co121       O122   2.076       .  S
C123        C462   1.478       .  S
C124        C501   1.448       .  S
C125        C506   1.484       .  S
C126        C454   1.477       .  S
N127        C132   1.356   1_556  A
N127        C131   1.358       .  A
N127        H159   1.041       .  S
N128        C135   1.363       .  A
N128        C136   1.359       .  A
N129        C134   1.361   1_556  A
N129        C133   1.352       .  A
N129        H160   1.041       .  S
N130        C137   1.347       .  A
N130        C138   1.355       .  A
C131        C139   1.387       .  A
C131        C147   1.421       .  A
C132        C148   1.422       .  A
C132        C140   1.388       .  A
C133        C141   1.389       .  A
C133        C150   1.422       .  A
C134        C149   1.422       .  A
C134        C142   1.386       .  A
C135        C147   1.432       .  A
C135        C659   1.386       .  A
C136        C150   1.430       .  A
C136        C660   1.388       .  A
C137        C145   1.389       .  A
C137        C148   1.413       .  A
C138        C146   1.384       .  A
C138        C149   1.410       .  A
C139        C140   1.377   1_556  A
C139        H151   1.081       .  S
C140        H152   1.081       .  S
C141        C142   1.378   1_556  A
C141        H153   1.082       .  S
C142        H154   1.082       .  S
C143        C144   1.371       .  A
C143        C651   1.390       .  A
C143        H155   1.079       .  S
C144        C652   1.384       .  A
C144        H156   1.082       .  S
C145        C146   1.372       .  A
C145        H157   1.083       .  S
C146        H158   1.081       .  S
C147        C962   1.520       .  S
C148        C437   1.485       .  S
C149        C441   1.504       .  S
C150        C965   1.508       .  S
N161        C166   1.354   1_556  A
N161        C165   1.357       .  A
N161        H193   1.040       .  S
N162        C169   1.354       .  A
N162        C170   1.353       .  A
N163        C168   1.354   1_556  A
N163        C167   1.348       .  A
N163        H194   1.042       .  S
N164        C171   1.349       .  A
N164        C172   1.355       .  A
C165        C173   1.384       .  A
C165        C181   1.416       .  A
C166        C182   1.422       .  A
C166        C174   1.390       .  A
C167        C175   1.386       .  A
C167        C184   1.410       .  A
C168        C183   1.416       .  A
C168        C176   1.387       .  A
C169        C181   1.414       .  A
C169        C177   1.386       .  A
C170        C184   1.414       .  A
C170        C178   1.387       .  A
C171        C179   1.389       .  A
C171        C182   1.414       .  A
C172        C180   1.385       .  A
C172        C183   1.414       .  A
C173        C174   1.377   1_556  A
C173        H185   1.081       .  S
C174        H186   1.081       .  S
C175        C176   1.376   1_556  A
C175        H187   1.082       .  S
C176        H188   1.082       .  S
C177        C178   1.376       .  A
C177        H189   1.082       .  S
C178        H190   1.082       .  S
C179        C180   1.373       .  A
C179        H191   1.083       .  S
C180        H192   1.082       .  S
C181        C434   1.493       .  S
C182        C425   1.483       .  S
C183        C421   1.502       .  S
C184        C429   1.488       .  S
O195        C203   1.251       .  A
O195      Co1247   1.973   1_455  S
O196        C204   1.275       .  A
O196      Co1248   1.903       .  S
O197        C205   1.265       .  A
O197      Co1249   1.996   1_455  S
O198        C206   1.294       .  A
O198      Co1250   2.074       .  S
O199        C205   1.256       .  A
O199      Co1248   1.992       .  S
O200        C206   1.266       .  A
O200      Co1247   1.900   1_455  S
O201        C204   1.298       .  A
O201      Co1250   2.072       .  S
O202        C203   1.271       .  A
O202      Co1249   2.054   1_455  S
C203        C445   1.486       .  S
C204        C409   1.474       .  S
C205        C405   1.480       .  S
C206        C430   1.471       .  S
O207        C220   1.240       .  A
O207       Co215   1.950       .  S
O208        C221   1.271       .  A
O208       Co216   2.014       .  S
O209        C222   1.258       .  A
O209       Co217   1.962       .  S
O210        C223   1.255       .  A
O210       Co218   1.994       .  S
O211        C223   1.248       .  A
O211       Co216   1.975       .  S
O212        C222   1.270       .  A
O212       Co215   2.016       .  S
O213        C220   1.261       .  A
O213       Co218   2.039       .  S
O214        C221   1.262       .  A
O214       Co217   1.975       .  S
Co215      O1227   1.997       .  S
Co215      O1232   1.895       .  S
Co215       O219   1.919       .  S
Co216      O1228   1.885       .  S
Co216      O1231   1.993       .  S
Co216       O219   1.924       .  S
Co217      O1229   2.005       .  S
Co217      O1234   2.032       .  S
Co217       O219   2.095       .  S
Co218      O1230   2.089       .  S
Co218      O1233   2.080       .  S
Co218       O219   2.257       .  S
C220        C433   1.490       .  S
C221        C413   1.474       .  S
C222        C450   1.471       .  S
C223        C417   1.479       .  S
N224        C229   1.355       .  A
N224        C228   1.357       .  A
N224        H256   1.034       .  S
N225        C232   1.353       .  A
N225        C233   1.353       .  A
N226        C231   1.360       .  A
N226        C230   1.360       .  A
N226        H257   1.039       .  S
N227        C234   1.354       .  A
N227        C235   1.352       .  A
C228        C236   1.389       .  A
C228        C244   1.423       .  A
C229        C245   1.420       .  A
C229        C237   1.387       .  A
C230        C238   1.390       .  A
C230        C247   1.430       .  A
C231        C246   1.426       .  A
C231        C239   1.385       .  A
C232        C244   1.416       .  A
C232        C240   1.385       .  A
C233        C247   1.421       .  A
C233        C241   1.390       .  A
C234        C245   1.415       .  A
C234        C758   1.387       .  A
C235        C246   1.412       .  A
C235        C759   1.386       .  A
C236        C237   1.371       .  A
C236       H1280   1.080       .  S
C237       H1281   1.083       .  S
C238        C239   1.375       .  A
C238        H250   1.082       .  S
C239        H251   1.082       .  S
C240        C241   1.368       .  A
C240        H252   1.082       .  S
C241        H253   1.078       .  S
C242        C243   1.376       .  A
C242        C750   1.385   1_545  A
C242        H254   1.082       .  S
C243        C751   1.388   1_545  A
C243        H255   1.082       .  S
C244        C410   1.493       .  S
C245        C406   1.488       .  S
C246        C453   1.500       .  S
C247        C458   1.498       .  S
H248       C1268   1.079       .  S
H249       C1269   1.083       .  S
N258        C263   1.356       .  A
N258        C262   1.355       .  A
N258        H290   1.040       .  S
N259        C266   1.352       .  A
N259        C267   1.352       .  A
N260        C265   1.356       .  A
N260        C264   1.356       .  A
N260        H291   1.036       .  S
N261        C268   1.353       .  A
N261        C269   1.354       .  A
C262        C270   1.389       .  A
C262        C278   1.419       .  A
C263        C279   1.415       .  A
C263        C271   1.386       .  A
C264        C272   1.387       .  A
C264        C281   1.421       .  A
C265        C280   1.422       .  A
C265        C273   1.389       .  A
C266        C278   1.410       .  A
C266        C274   1.384       .  A
C267        C281   1.418       .  A
C267        C275   1.388       .  A
C268        C279   1.421       .  A
C268        C792   1.388       .  A
C269        C280   1.416       .  A
C269        C793   1.386       .  A
C270        C271   1.374       .  A
C270        H282   1.082       .  S
C271        H283   1.082       .  S
C272        C273   1.371       .  A
C272        H284   1.082       .  S
C273        H285   1.080       .  S
C274        C275   1.375       .  A
C274        H286   1.082       .  S
C275        H287   1.082       .  S
C276        C277   1.367       .  A
C276        C784   1.387   1_545  A
C276        H288   1.081       .  S
C277        C785   1.386   1_545  A
C277        H289   1.082       .  S
C278        C465   1.483       .  S
C279        C461   1.498       .  S
C280        C414   1.492       .  S
C281        C418   1.494       .  S
N292        C297   1.354       .  A
N292        C296   1.362       .  A
N292        H324   1.036       .  S
N293        C300   1.359       .  A
N293        C301   1.352       .  A
N294        C299   1.362       .  A
N294        C298   1.349       .  A
N294        H325   1.039       .  S
N295        C302   1.349       .  A
N295        C303   1.359       .  A
C296        C304   1.384       .  A
C296        C312   1.424       .  A
C297        C313   1.425       .  A
C297        C305   1.391       .  A
C298        C306   1.388       .  A
C298        C315   1.413       .  A
C299        C314   1.421       .  A
C299        C307   1.385       .  A
C300        C312   1.422       .  A
C300        C824   1.385   1_545  A
C301        C315   1.421       .  A
C301        C825   1.388   1_545  A
C302        C310   1.390       .  A
C302        C313   1.417       .  A
C303        C311   1.384       .  A
C303        C314   1.420       .  A
C304        C305   1.375       .  A
C304        H316   1.082       .  S
C305        H317   1.081       .  S
C306        C307   1.373       .  A
C306        H318   1.082       .  S
C307        H319   1.080       .  S
C308        C309   1.371       .  A
C308        C816   1.388       .  A
C308        H320   1.080       .  S
C309        C817   1.386       .  A
C309        H321   1.082       .  S
C310        C311   1.372       .  A
C310        H322   1.082       .  S
C311        H323   1.081       .  S
C312        C397   1.513   1_545  S
C313        C401   1.478       .  S
C314        C474   1.521       .  S
C315        C470   1.480   1_545  S
N326        C331   1.357       .  A
N326        C330   1.354       .  A
N326        H358   1.039       .  S
N327        C334   1.347       .  A
N327        C335   1.352       .  A
N328        C333   1.350       .  A
N328        C332   1.355       .  A
N328        H359   1.040       .  S
N329        C336   1.352       .  A
N329        C337   1.352       .  A
C330        C338   1.386       .  A
C330        C346   1.419       .  A
C331        C347   1.419       .  A
C331        C339   1.386       .  A
C332        C340   1.382       .  A
C332        C349   1.407       .  A
C333        C348   1.418       .  A
C333        C341   1.391       .  A
C334        C346   1.409       .  A
C334        C342   1.389       .  A
C335        C349   1.407       .  A
C335        C343   1.385       .  A
C336        C347   1.412       .  A
C336        C860   1.383   1_545  A
C337        C348   1.420       .  A
C337        C861   1.389   1_545  A
C338        C339   1.379       .  A
C338        H350   1.082       .  S
C339        H351   1.082       .  S
C340        C341   1.375       .  A
C340        H352   1.082       .  S
C341        H353   1.082       .  S
C342        C343   1.371       .  A
C342        H354   1.083       .  S
C343        H355   1.083       .  S
C344        C345   1.365       .  A
C344        C852   1.386       .  A
C344        H356   1.081       .  S
C345        C853   1.389       .  A
C345        H357   1.083       .  S
C346        C482   1.477       .  S
C347        C478   1.493       .  S
C348        C389   1.491   1_545  S
C349        C393   1.484       .  S
O360        C368   1.267       .  A
O360       Co380   1.976       .  S
O361        C369   1.296       .  A
O361       Co381   2.086       .  S
O362       C1402   1.272       .  A
O362       Co382   2.022       .  S
O363        C371   1.290       .  A
O363       Co383   2.083       .  S
O364        C370   1.301       .  A
O364       Co381   2.077       .  S
O365        C371   1.269       .  A
O365       Co380   1.923       .  S
O366        C369   1.265       .  A
O366      Co1415   1.877   1_455  S
O367        C368   1.276       .  A
O367       Co382   2.015       .  S
C368        C426   1.466       .  S
C369        C402   1.466       .  S
C370        C422   1.476       .  S
C370       O1394   1.273       .  A
C371        C394   1.484       .  S
O372        C385   1.294       .  A
O372       Co380   2.101       .  S
O373        C386   1.251       .  A
O373       Co381   1.975       .  S
O374        C387   1.263       .  A
O374       Co382   1.993       .  S
O375        C388   1.243       .  A
O375      Co1415   1.956   1_455  S
O376        C388   1.256       .  A
O376       Co381   2.016       .  S
O377        C387   1.268       .  A
O377       Co380   2.027       .  S
O378        C385   1.265       .  A
O378       Co383   1.877       .  S
O379       C1418   1.262       .  A
O379       Co382   1.971       .  S
Co380       O384   2.022       .  S
Co381      O1416   2.251   1_455  S
Co382       O384   2.040       .  S
Co383      O1398   2.009       .  S
Co383      O1407   1.980       .  S
Co383       O384   1.999       .  S
O384      Co1413   2.042       .  S
C385        C390   1.468       .  S
C386        C438   1.476       .  S
C386       O1411   1.245       .  A
C387        C442   1.491       .  S
C388        C398   1.483       .  S
C389        H391   1.087   1_565  S
C389        C906   1.342       .  D
C390        H392   1.087       .  S
C390        C905   1.341       .  D
C393        H395   1.084       .  S
C393        C394   1.348       .  D
C394        H396   1.086       .  S
C397        H399   1.086       .  S
C397        C914   1.360       .  D
C398        H400   1.086       .  S
C398        C913   1.349       .  D
C401        H403   1.087       .  S
C401        C402   1.341       .  D
C402        H404   1.087       .  S
C405        H407   1.086       .  S
C405        C922   1.346   1_545  D
C406        H408   1.088       .  S
C406        C921   1.354       .  D
C409        H411   1.086       .  S
C409        C410   1.345       .  D
C410        H412   1.088       .  S
C413        H415   1.087   1_545  S
C413        C930   1.341       .  D
C414        H416   1.086       .  S
C414        C929   1.344       .  D
C417        H419   1.086       .  S
C417        C418   1.350       .  D
C418        H420   1.088       .  S
C421        H423   1.087       .  S
C421        C422   1.350       .  D
C422        H424   1.085       .  S
C425        H427   1.087       .  S
C425        C426   1.342       .  D
C426        H428   1.085       .  S
C429        H431   1.086       .  S
C429        C430   1.347       .  D
C430        H432   1.087       .  S
C433        H435   1.086       .  S
C433        C434   1.354       .  D
C434        H436   1.087       .  S
C437        H439   1.088       .  S
C437        C438   1.344       .  D
C438        H440   1.086       .  S
C441        H443   1.084       .  S
C441        C442   1.352       .  D
C442        H444   1.086       .  S
C445        H447   1.087       .  S
C445        C446   1.347       .  D
C446        C663   1.510       .  S
C446        H964   1.086   1_545  S
H448        C962   1.085       .  S
C449        C666   1.489       .  S
C449        H967   1.086       .  S
C449        C450   1.350       .  D
C450        H452   1.087       .  S
H451        C965   1.085       .  S
C453        H455   1.087       .  S
C453        C970   1.341       .  D
C454        H456   1.086       .  S
C454        C969   1.343       .  D
C457        H459   1.086       .  S
C457        C458   1.356       .  D
C458        H460   1.087       .  S
C461        H463   1.086       .  S
C461        C978   1.341       .  D
C462        H464   1.087       .  S
C462        C977   1.345   1_545  D
C465        H467   1.088       .  S
C465        C466   1.352       .  D
C466        H468   1.085       .  S
C469        H471   1.087       .  S
C469        C986   1.341       .  D
C470        H472   1.087       .  S
C470        C985   1.336       .  D
C473        H475   1.083       .  S
C473        C474   1.352       .  D
C474        H476   1.086       .  S
C477        H479   1.087       .  S
C477        C994   1.350       .  D
C478        H480   1.086   1_545  S
C478        C993   1.349   1_545  D
C481        H483   1.086       .  S
C481        C482   1.340       .  D
C482        H484   1.087       .  S
C485        H487   1.087       .  S
C485        C486   1.341       .  D
C486        H488   1.086       .  S
C489        H491   1.087       .  S
C489        C490   1.337       .  D
C490        H492   1.087       .  S
C493        H495   1.086       .  S
C493        C494   1.346       .  D
C494        H496   1.086       .  S
C497        H499   1.085       .  S
C497        C498   1.345       .  D
C498        H500   1.086       .  S
C501        H503   1.086       .  S
C501        C502   1.340       .  D
C502        H504   1.087       .  S
C505        H507   1.088       .  S
C505        C506   1.340       .  D
C506        H508   1.085       .  S
C509        H511   1.085       .  S
C509        C510   1.349       .  D
C510        H512   1.087       .  S
C513        H515   1.086       .  S
C513        C514   1.351       .  D
C514        H516   1.085       .  S
N517        C522   1.355       .  A
N517        H549   1.034       .  S
N518       C1557   1.358       .  A
N518        C526   1.357       .  A
N519        C523   1.351   1_545  A
N519        H550   1.043       .  S
N520       C1559   1.350       .  A
N520        C528   1.347       .  A
C521        C529   1.392       .  A
C521        C537   1.417       .  A
C522        C538   1.413       .  A
C522        C530   1.384       .  A
C523        C531   1.390       .  A
C523        C540   1.420       .  A
C524        C539   1.419       .  A
C524        C532   1.384       .  A
C525       N1550   1.355   1_455  A
C525        C537   1.416       .  A
C525        C533   1.385       .  A
C526        C540   1.424       .  A
C526        C534   1.389       .  A
C527       N1552   1.350   1_455  A
C527        C535   1.384   1_455  A
C527        C538   1.408       .  A
C528        C536   1.388       .  A
C528        C539   1.409       .  A
C529        H541   1.080       .  S
C530        H542   1.082       .  S
C531        H543   1.082       .  S
C532        H544   1.082       .  S
C533       C1566   1.374   1_455  A
C533        H545   1.082       .  S
C534       C1565   1.374       .  A
C534        H546   1.082       .  S
C535       C1568   1.364       .  A
C535        H547   1.080   1_655  S
C536       C1567   1.368       .  A
C536        H548   1.082       .  S
C537       C1025   1.489       .  S
C538       C1018   1.488       .  S
C539       C1021   1.491       .  S
C540       C1029   1.499       .  S
N551        C556   1.356       .  A
N551        C555   1.348       .  A
N551        H583   1.041       .  S
N552       C1591   1.354       .  A
N552        C560   1.352       .  A
N553        C558   1.355       .  A
N553        C557   1.355       .  A
N553        H584   1.040       .  S
N554       C1593   1.351       .  A
N554        C562   1.348       .  A
C555        C563   1.385       .  A
C555        C571   1.406       .  A
C556        C572   1.417       .  A
C556        C564   1.389       .  A
C557        C565   1.386       .  A
C557        C574   1.420       .  A
C558        C573   1.420       .  A
C558        C566   1.388       .  A
C559       N1584   1.357   1_455  A
C559        C571   1.420       .  A
C559        C567   1.386       .  A
C560        C574   1.414       .  A
C560        C568   1.388       .  A
C561       N1586   1.351   1_455  A
C561        C569   1.383       .  A
C561        C572   1.407       .  A
C562        C570   1.387       .  A
C562        C573   1.410       .  A
C563        C564   1.377       .  A
C563        H575   1.083       .  S
C564        H576   1.082       .  S
C565        C566   1.380       .  A
C565        H577   1.082       .  S
C566        H578   1.083       .  S
C567       C1600   1.373   1_455  A
C567        H579   1.081       .  S
C568       C1599   1.370       .  A
C568        H580   1.082       .  S
C569       C1602   1.373   1_455  A
C569        H581   1.082       .  S
C570       C1601   1.374       .  A
C570        H582   1.082       .  S
C571       C1002   1.485       .  S
C572       C1009   1.492       .  S
C573       C1013   1.482       .  S
C574       C1005   1.494       .  S
O585        C593   1.264       .  A
O585       Co605   2.007       .  S
O586        C594   1.281       .  A
O586       Co606   2.038       .  S
O587        C595   1.261       .  A
O587       Co607   1.975       .  S
O588        C596   1.259       .  A
O588       Co608   1.886       .  S
O589        C595   1.269       .  A
O589       Co606   2.014       .  S
O590        C596   1.290       .  A
O590       Co605   2.106       .  S
O591        C594   1.263       .  A
O591       Co608   1.967       .  S
O592        C593   1.257       .  A
O592       Co607   1.979       .  S
C593       C1014   1.472       .  S
C594        C989   1.476       .  S
C595       C1010   1.483       .  S
C596        C997   1.470       .  S
O597        C610   1.270       .  A
O597       Co605   1.924       .  S
O598        C611   1.269       .  A
O598       Co606   1.973       .  S
O599        C612   1.279       .  A
O599       Co607   2.032       .  S
O600        C613   1.253       .  A
O600       Co608   1.985       .  S
O601        C613   1.261       .  A
O601       Co606   1.990       .  S
O602        C612   1.271       .  A
O602       Co605   1.974       .  S
O603        C610   1.293       .  A
O603       Co608   2.086       .  S
O604        C611   1.272       .  A
O604       Co607   2.003       .  S
Co605       O609   2.034       .  S
Co606       O609   2.058       .  S
Co607       O609   2.019       .  S
Co608       O609   1.991       .  S
C610        C993   1.489       .  S
C611       C1026   1.465       .  S
C612       C1030   1.477       .  S
C613        C985   1.472       .  S
O614        C622   1.253       .  A
O614       Co634   1.980       .  S
O615        C623   1.273       .  A
O615       Co635   2.038       .  S
O616        C624   1.256       .  A
O616       Co636   1.993       .  S
O617        C625   1.257       .  A
O617       Co637   1.944       .  S
O618        C624   1.245       .  A
O618       Co635   1.967       .  S
O619        C625   1.273       .  A
O619       Co634   2.036       .  S
O620        C623   1.251       .  A
O620       Co637   1.950       .  S
O621        C622   1.252       .  A
O621       Co636   1.990       .  S
C622       C1006   1.480       .  S
C623        C973   1.484       .  S
C624       C1001   1.476       .  S
C625        C982   1.474       .  S
O626        C639   1.263       .  A
O626       Co634   2.001       .  S
O627        C640   1.272       .  A
O627       Co635   1.894       .  S
O628        C641   1.295       .  A
O628       Co636   2.059       .  S
O629        C642   1.272       .  A
O629       Co637   2.041       .  S
O630        C642   1.251       .  A
O630       Co635   1.966       .  S
O631        C641   1.277       .  A
O631       Co634   1.898       .  S
O632        C639   1.260       .  A
O632       Co637   1.993       .  S
O633        C640   1.296       .  A
O633       Co636   2.059       .  S
Co634       O638   1.965       .  S
Co635       O638   1.938       .  S
Co636       O638   2.240       .  S
Co637       O638   2.066       .  S
C639        C978   1.476       .  S
C640       C1017   1.459       .  S
C641       C1022   1.477       .  S
C642        C970   1.479       .  S
N643        C648   1.356       .  A
N643        C647   1.361   1_554  A
N643        H675   1.037       .  S
N644        C651   1.355       .  A
N644        C652   1.355       .  A
N645        C650   1.353   1_556  A
N645        C649   1.348       .  A
N645        H676   1.041   1_565  S
N646        C653   1.350       .  A
N646        C654   1.355       .  A
C647        C655   1.388       .  A
C647        C663   1.428   1_565  A
C648        C664   1.424       .  A
C648        C656   1.388       .  A
C649        C657   1.388       .  A
C649        C666   1.409   1_565  A
C650        C665   1.405       .  A
C650        C658   1.386   1_554  A
C651        C663   1.427       .  A
C652        C666   1.416       .  A
C653        C661   1.390       .  A
C653        C664   1.417       .  A
C654        C662   1.384       .  A
C654        C665   1.413       .  A
C655        C656   1.377   1_556  A
C655        H667   1.082       .  S
C656        H668   1.082       .  S
C657        C658   1.369       .  A
C657        H669   1.082       .  S
C658        H670   1.082       .  S
C659        C660   1.378       .  A
C659        H671   1.081       .  S
C660        H672   1.082       .  S
C661        C662   1.372       .  A
C661        H673   1.082       .  S
C662        H674   1.082       .  S
C664        C953   1.486       .  S
C665        C957   1.485       .  S
N677        C682   1.356       .  A
N677        C681   1.359   1_554  A
N677        H709   1.034       .  S
N678        C685   1.356       .  A
N678        C686   1.355       .  A
N679        C684   1.355       .  A
N679        C683   1.348   1_554  A
N679        H710   1.043   1_554  S
N680        C687   1.347       .  A
N680        C688   1.352       .  A
C681        C689   1.390   1_556  A
C681        C697   1.429       .  A
C682        C698   1.423       .  A
C682        C690   1.387       .  A
C683        C691   1.389       .  A
C683        C700   1.414       .  A
C684        C699   1.406       .  A
C684        C692   1.383       .  A
C685        C697   1.429       .  A
C685        C693   1.388       .  A
C686        C700   1.423       .  A
C686        C694   1.386       .  A
C687        C695   1.391       .  A
C687        C698   1.414       .  A
C688        C696   1.383       .  A
C688        C699   1.407       .  A
C689        C690   1.374       .  A
C689        H701   1.082   1_554  S
C690        H702   1.081       .  S
C691        C692   1.374   1_556  A
C691        H703   1.083       .  S
C692        H704   1.082       .  S
C693        C694   1.380       .  A
C693        H705   1.081       .  S
C694        H706   1.081       .  S
C695        C696   1.369       .  A
C695        H707   1.082       .  S
C696        H708   1.082       .  S
C697        C950   1.506       .  S
C698        C941   1.478       .  S
C699        C937   1.490       .  S
C700        C945   1.503       .  S
O711        C719   1.248       .  A
O711      Co1763   1.982   1_455  S
O712        C720   1.273       .  A
O712      Co1764   1.877       .  S
O713        C721   1.258       .  A
O713      Co1765   1.972   1_455  S
O714        C722   1.295       .  A
O714      Co1766   2.085       .  S
O715        C721   1.259       .  A
O715      Co1764   2.000       .  S
O716        C722   1.268       .  A
O716      Co1763   1.904   1_455  S
O717        C720   1.299       .  A
O717      Co1766   2.078       .  S
O718        C719   1.276       .  A
O718      Co1765   2.081   1_455  S
C719        C961   1.502       .  S
C720        C925   1.462       .  S
C721        C921   1.484       .  S
C722        C946   1.469       .  S
O723        C736   1.281       .  A
O723       Co731   2.047       .  S
O724        C737   1.272       .  A
O724       Co732   2.016       .  S
O725        C738   1.261       .  A
O725       Co733   1.976       .  S
O726        C739   1.238       .  A
O726       Co734   1.912       .  S
O727        C739   1.277       .  A
O727       Co732   2.068       .  S
O728        C738   1.272       .  A
O728       Co731   2.026       .  S
O729        C736   1.260       .  A
O729       Co734   1.952       .  S
O730        C737   1.264       .  A
O730       Co733   1.983       .  S
Co731      O1743   1.934       .  S
Co731      O1748   1.983       .  S
Co731       O735   2.049       .  S
Co732      O1744   1.867       .  S
Co732      O1747   1.994       .  S
Co732       O735   1.985       .  S
Co733      O1745   2.028       .  S
Co733      O1750   2.080       .  S
Co733       O735   2.073       .  S
Co734      O1746   1.982       .  S
Co734      O1749   2.102       .  S
Co734       O735   2.065       .  S
C736        C949   1.489       .  S
C737        C929   1.477       .  S
C738        C966   1.488       .  S
C739        C933   1.476       .  S
N740        C745   1.350       .  A
N740        C744   1.353       .  A
N740        H772   1.037       .  S
N741        C748   1.350       .  A
N741        C749   1.351       .  A
N742        C747   1.358       .  A
N742        C746   1.361       .  A
N742        H773   1.041       .  S
N743        C750   1.355       .  A
N743        C751   1.351       .  A
C744        C752   1.390       .  A
C744        C760   1.416       .  A
C745        C761   1.409       .  A
C745        C753   1.385       .  A
C746        C754   1.390       .  A
C746        C763   1.430       .  A
C747        C762   1.425       .  A
C747        C755   1.386       .  A
C748        C760   1.411       .  A
C748        C756   1.384       .  A
C749        C763   1.416       .  A
C749        C757   1.390       .  A
C750        C761   1.414       .  A
C751        C762   1.414       .  A
C752        C753   1.370       .  A
C752       H1796   1.080       .  S
C753       H1797   1.083       .  S
C754        C755   1.377       .  A
C754        H766   1.082       .  S
C755        H767   1.082       .  S
C756        C757   1.367       .  A
C756        H768   1.082       .  S
C757        H769   1.076       .  S
C758        C759   1.372       .  A
C758        H770   1.081       .  S
C759        H771   1.082       .  S
C760        C926   1.480       .  S
C761        C922   1.483       .  S
C762        C969   1.499   1_565  S
C763        C974   1.498       .  S
H764       C1784   1.080       .  S
H765       C1785   1.082       .  S
N774        C779   1.361       .  A
N774        C778   1.355       .  A
N774        H806   1.037       .  S
N775        C782   1.351       .  A
N775        C783   1.353       .  A
N776        C781   1.357       .  A
N776        C780   1.360       .  A
N776        H807   1.038       .  S
N777        C784   1.354       .  A
N777        C785   1.351       .  A
C778        C786   1.390       .  A
C778        C794   1.421       .  A
C779        C795   1.419       .  A
C779        C787   1.385       .  A
C780        C788   1.385       .  A
C780        C797   1.424       .  A
C781        C796   1.424       .  A
C781        C789   1.388       .  A
C782        C794   1.412       .  A
C782        C790   1.387       .  A
C783        C797   1.413       .  A
C783        C791   1.387       .  A
C784        C795   1.420       .  A
C785        C796   1.414       .  A
C786        C787   1.369       .  A
C786        H798   1.082       .  S
C787        H799   1.082       .  S
C788        C789   1.374       .  A
C788        H800   1.081       .  S
C789        H801   1.082       .  S
C790        C791   1.366       .  A
C790        H802   1.082       .  S
C791        H803   1.082       .  S
C792        C793   1.375       .  A
C792        H804   1.082       .  S
C793        H805   1.083       .  S
C794        C981   1.475       .  S
C795        C977   1.503       .  S
C796        C930   1.486   1_565  S
C797        C934   1.499       .  S
N808        C813   1.355       .  A
N808        C812   1.356       .  A
N808        H840   1.039       .  S
N809        C816   1.354       .  A
N809        C817   1.353       .  A
N810        C815   1.357       .  A
N810        C814   1.357       .  A
N810        H841   1.038       .  S
N811        C818   1.353       .  A
N811        C819   1.352       .  A
C812        C820   1.389       .  A
C812        C828   1.421       .  A
C813        C829   1.419       .  A
C813        C821   1.386       .  A
C814        C822   1.389       .  A
C814        C831   1.426       .  A
C815        C830   1.421       .  A
C815        C823   1.386       .  A
C816        C828   1.418       .  A
C817        C831   1.415       .  A
C818        C826   1.387       .  A
C818        C829   1.411       .  A
C819        C827   1.388       .  A
C819        C830   1.414       .  A
C820        C821   1.375       .  A
C820        H832   1.081       .  S
C821        H833   1.082   1_455  S
C822        C823   1.375       .  A
C822        H834   1.081       .  S
C823        H835   1.082       .  S
C824        C825   1.380       .  A
C824        H836   1.082       .  S
C825        H837   1.082       .  S
C826        C827   1.369       .  A
C826        H838   1.082       .  S
C827        H839   1.082       .  S
C828        C913   1.491       .  S
C829        C917   1.494       .  S
C830        C990   1.494       .  S
C831        C986   1.496       .  S
N842        C847   1.360       .  A
N842        C846   1.354       .  A
N842        H874   1.040       .  S
N843        C850   1.350       .  A
N843        C851   1.355       .  A
N844        C849   1.353       .  A
N844        C848   1.360       .  A
N844        H875   1.037       .  S
N845        C852   1.355       .  A
N845        C853   1.351       .  A
C846        C854   1.391       .  A
C846        C862   1.421       .  A
C847        C863   1.417       .  A
C847        C855   1.385       .  A
C848        C856   1.384       .  A
C848        C865   1.417       .  A
C849        C864   1.422       .  A
C849        C857   1.391       .  A
C850        C862   1.415       .  A
C850        C858   1.389       .  A
C851        C865   1.416       .  A
C851        C859   1.386       .  A
C852        C863   1.414       .  A
C853        C864   1.416       .  A
C854        C855   1.374       .  A
C854        H866   1.082       .  S
C855        H867   1.082       .  S
C856        C857   1.369       .  A
C856        H868   1.082       .  S
C857        H869   1.081       .  S
C858        C859   1.368       .  A
C858        H870   1.083       .  S
C859        H871   1.082       .  S
C860        C861   1.377       .  A
C860        H872   1.082       .  S
C861        H873   1.081       .  S
C862        C998   1.476       .  S
C863        C994   1.497       .  S
C864        C905   1.478       .  S
C865        C909   1.499       .  S
O876        C884   1.263       .  A
O876       Co896   2.001       .  S
O877        C885   1.249       .  A
O877       Co897   1.963       .  S
O878       C1918   1.266       .  A
O878       Co898   1.987       .  S
O879        C887   1.266       .  A
O879       Co899   1.961       .  S
O880        C886   1.262       .  A
O880       Co897   1.965       .  S
O881        C887   1.280       .  A
O881       Co896   2.048       .  S
O882        C885   1.262       .  A
O882      Co1931   2.017   1_455  S
O883        C884   1.254       .  A
O883       Co898   1.971       .  S
C884        C942   1.470       .  S
C885        C918   1.472       .  S
C886        C938   1.479       .  S
C886       O1910   1.271       .  A
C887        C910   1.486       .  S
O888        C901   1.263       .  A
O888       Co896   1.968       .  S
O889        C902   1.269       .  A
O889       Co897   1.997       .  S
O890        C903   1.283       .  A
O890       Co898   2.041       .  S
O891        C904   1.262       .  A
O891      Co1931   1.973   1_455  S
O892        C904   1.284       .  A
O892       Co897   2.070       .  S
O893        C903   1.266       .  A
O893       Co896   1.961       .  S
O894        C901   1.267       .  A
O894       Co899   2.027       .  S
O895       C1934   1.264       .  A
O895       Co898   2.003       .  S
Co896       O900   2.075       .  S
Co897      O1932   2.047   1_455  S
Co898       O900   2.099       .  S
Co899      O1914   1.824       .  S
Co899      O1923   2.069       .  S
Co899       O900   2.007       .  S
O900      Co1929   2.084       .  S
C901        C906   1.471       .  S
C902        C954   1.479       .  S
C902       O1927   1.264       .  A
C903        C958   1.476       .  S
C904        C914   1.506       .  S
C905        H907   1.087       .  S
C906        H908   1.084       .  S
C909        H911   1.086       .  S
C909        C910   1.349       .  D
C910        H912   1.087       .  S
C913        H915   1.085       .  S
C914        H916   1.086       .  S
C917        H919   1.087       .  S
C917        C918   1.339       .  D
C918        H920   1.087       .  S
C921        H923   1.086       .  S
C922        H924   1.088       .  S
C925        H927   1.086       .  S
C925        C926   1.341       .  D
C926        H928   1.086       .  S
C929        H931   1.087       .  S
C930        H932   1.086       .  S
C933        H935   1.087       .  S
C933        C934   1.342       .  D
C934        H936   1.085       .  S
C937        H939   1.087       .  S
C937        C938   1.348       .  D
C938        H940   1.087       .  S
C941        H943   1.085       .  S
C941        C942   1.342       .  D
C942        H944   1.086       .  S
C945        H947   1.084       .  S
C945        C946   1.354       .  D
C946        H948   1.085       .  S
C949        H951   1.086       .  S
C949        C950   1.348       .  D
C950        H952   1.086       .  S
C953        H955   1.086       .  S
C953        C954   1.349       .  D
C954        H956   1.086       .  S
C957        H959   1.086       .  S
C957        C958   1.344       .  D
C958        H960   1.087       .  S
C961        H963   1.084       .  S
C961        C962   1.348       .  D
C965        C966   1.354       .  D
C966        H968   1.086       .  S
C969        H971   1.087       .  S
C970        H972   1.087       .  S
C973        H975   1.085       .  S
C973        C974   1.357       .  D
C974        H976   1.087       .  S
C977        H979   1.087       .  S
C978        H980   1.087       .  S
C981        H983   1.088       .  S
C981        C982   1.348       .  D
C982        H984   1.085       .  S
C985        H987   1.087       .  S
C986        H988   1.086       .  S
C989        H991   1.087       .  S
C989        C990   1.341       .  D
C990        H992   1.087       .  S
C993        H995   1.086       .  S
C994        H996   1.086       .  S
C997        H999   1.086       .  S
C997        C998   1.343       .  D
C998       H1000   1.087       .  S
C1001      H1003   1.087       .  S
C1001      C1002   1.343       .  D
C1002      H1004   1.087       .  S
C1005      H1007   1.087       .  S
C1005      C1006   1.342       .  D
C1006      H1008   1.086       .  S
C1009      H1011   1.087       .  S
C1009      C1010   1.346       .  D
C1010      H1012   1.086       .  S
C1013      H1015   1.086       .  S
C1013      C1014   1.342       .  D
C1014      H1016   1.086       .  S
C1017      H1019   1.086       .  S
C1017      C1018   1.344       .  D
C1018      H1020   1.088       .  S
C1021      H1023   1.088       .  S
C1021      C1022   1.339       .  D
C1022      H1024   1.086       .  S
C1025      H1027   1.086       .  S
C1025      C1026   1.340       .  D
C1026      H1028   1.088       .  S
C1029      H1031   1.087       .  S
C1029      C1030   1.350       .  D
C1030      H1032   1.085       .  S
N1033      C1038   1.355       .  A
N1033      C1553   1.353   1_545  A
N1033      H1065   1.043       .  S
N1034      C1042   1.357       .  A
N1035      C1556   1.356       .  A
N1035      C1039   1.354       .  A
N1035      H1066   1.040       .  S
N1036      C1044   1.347   1_455  A
C1037      N1549   1.351       .  A
C1037      C1045   1.392       .  A
C1037      C1053   1.424       .  A
C1038      C1054   1.414       .  A
C1038      C1046   1.384   1_545  A
C1039      C1047   1.389       .  A
C1039      C1056   1.422       .  A
C1040      N1551   1.355       .  A
C1040      C1055   1.413   1_565  A
C1040      C1048   1.384       .  A
C1041      C1053   1.426       .  A
C1041      C1049   1.386       .  A
C1042      C1056   1.426       .  A
C1042      C1050   1.387       .  A
C1043      C1051   1.386       .  A
C1043      C1054   1.410       .  A
C1044      C1052   1.388       .  A
C1044      C1055   1.405       .  A
C1045      C1562   1.368       .  A
C1045      H1057   1.081       .  S
C1046      C1561   1.382       .  A
C1046      H1058   1.082       .  S
C1047      C1564   1.380       .  A
C1047      H1059   1.081       .  S
C1048      C1563   1.379       .  A
C1048      H1060   1.082       .  S
C1049      H1061   1.081       .  S
C1050      H1062   1.082       .  S
C1051      H1063   1.082       .  S
C1052      H1064   1.082       .  S
C1053      C1541   1.500       .  S
C1054      C1534   1.499       .  S
C1055      C1537   1.491       .  S
C1056      C1545   1.502       .  S
N1067      C1072   1.352       .  A
N1067      C1071   1.355       .  A
N1067      H1099   1.041       .  S
N1068      C1076   1.355       .  A
N1069      C1074   1.357       .  A
N1069      C1073   1.353       .  A
N1069      H1100   1.039       .  S
N1070      C1078   1.352       .  A
C1071      C1079   1.386       .  A
C1071      C1087   1.416       .  A
C1072      C1088   1.415       .  A
C1072      C1080   1.388       .  A
C1073      C1081   1.386       .  A
C1073      C1090   1.418       .  A
C1074      C1089   1.422       .  A
C1074      C1082   1.389       .  A
C1075      C1087   1.408       .  A
C1075      C1083   1.387       .  A
C1076      C1090   1.416       .  A
C1076      C1084   1.387       .  A
C1077      C1085   1.387       .  A
C1077      C1088   1.409       .  A
C1078      C1086   1.388       .  A
C1078      C1089   1.414       .  A
C1079      C1080   1.377       .  A
C1079      H1091   1.082       .  S
C1080      H1092   1.082       .  S
C1081      C1082   1.378       .  A
C1081      H1093   1.082       .  S
C1082      H1094   1.082       .  S
C1083      H1095   1.082       .  S
C1084      H1096   1.082       .  S
C1085      H1097   1.082       .  S
C1086      H1098   1.080       .  S
C1087      C1518   1.494       .  S
C1088      C1525   1.476       .  S
C1089      C1529   1.491       .  S
C1090      C1521   1.496       .  S
O1101      C1109   1.266       .  A
O1101     Co1121   2.012       .  S
O1102      C1110   1.280       .  A
O1102     Co1122   2.029       .  S
O1103      C1111   1.258       .  A
O1103     Co1123   1.972       .  S
O1104      C1112   1.258       .  A
O1104     Co1124   1.886       .  S
O1105      C1111   1.267       .  A
O1105     Co1122   2.003       .  S
O1106      C1112   1.291       .  A
O1106     Co1121   2.110       .  S
O1107      C1110   1.269       .  A
O1107     Co1124   1.979       .  S
O1108      C1109   1.258       .  A
O1108     Co1123   1.978       .  S
C1109      C1530   1.472       .  S
C1110      C1505   1.481       .  S
C1111      C1526   1.467       .  S
C1112      C1513   1.472       .  S
O1113      C1126   1.272       .  A
O1113     Co1121   1.910       .  S
O1114      C1127   1.270       .  A
O1114     Co1122   1.971       .  S
O1115      C1128   1.276       .  A
O1115     Co1123   2.024       .  S
O1116      C1129   1.253       .  A
O1116     Co1124   1.984       .  S
O1117      C1129   1.263       .  A
O1117     Co1122   1.994       .  S
O1118      C1128   1.272       .  A
O1118     Co1121   1.984       .  S
O1119      C1126   1.296       .  A
O1119     Co1124   2.101       .  S
O1120      C1127   1.275       .  A
O1120     Co1123   2.011       .  S
Co1121     O1125   2.029       .  S
Co1122     O1125   2.060       .  S
Co1123     O1125   2.024       .  S
Co1124     O1125   1.987       .  S
C1126      C1509   1.487       .  S
C1127      C1542   1.469       .  S
C1128      C1546   1.481       .  S
C1129      C1501   1.474       .  S
O1130      C1138   1.251       .  A
O1130     Co1150   1.979       .  S
O1131      C1139   1.276       .  A
O1131     Co1151   2.022       .  S
O1132      C1140   1.246       .  A
O1132     Co1152   1.969       .  S
O1133      C1141   1.256       .  A
O1133     Co1153   1.946       .  S
O1134      C1140   1.251       .  A
O1134     Co1151   1.983       .  S
O1135      C1141   1.271       .  A
O1135     Co1150   2.029       .  S
O1136      C1139   1.262       .  A
O1136     Co1153   1.993       .  S
O1137      C1138   1.252       .  A
O1137     Co1152   1.989       .  S
C1138      C1522   1.475       .  S
C1139      C1489   1.487       .  S
C1140      C1517   1.469       .  S
C1141      C1498   1.471       .  S
O1142      C1155   1.253       .  A
O1142     Co1150   1.980       .  S
O1143      C1156   1.272       .  A
O1143     Co1151   1.892       .  S
O1144      C1157   1.294       .  A
O1144     Co1152   2.057       .  S
O1145      C1158   1.263       .  A
O1145     Co1153   2.001       .  S
O1146      C1158   1.259       .  A
O1146     Co1151   1.993       .  S
O1147      C1157   1.275       .  A
O1147     Co1150   1.901       .  S
O1148      C1155   1.271       .  A
O1148     Co1153   2.043       .  S
O1149      C1156   1.299       .  A
O1149     Co1152   2.073       .  S
Co1150     O1154   1.942       .  S
Co1151     O1154   1.926       .  S
Co1152     O1154   2.267       .  S
Co1153     O1154   2.108       .  S
C1155      C1494   1.487       .  S
C1156      C1533   1.472       .  S
C1157      C1538   1.475       .  S
C1158      C1486   1.480       .  S
N1159      C1164   1.357   1_556  A
N1159      C1163   1.359       .  A
N1159      H1191   1.036       .  S
N1160      C1167   1.356       .  A
N1160      C1168   1.358       .  A
N1161      C1166   1.351   1_556  A
N1161      C1165   1.348       .  A
N1161      H1192   1.041       .  S
N1162      C1169   1.349       .  A
N1162      C1170   1.352       .  A
C1163      C1171   1.387       .  A
C1163      C1179   1.426       .  A
C1164      C1180   1.425       .  A
C1164      C1172   1.388       .  A
C1165      C1173   1.386       .  A
C1165      C1182   1.407       .  A
C1166      C1181   1.406       .  A
C1166      C1174   1.388   1_554  A
C1167      C1179   1.427       .  A
C1167      C1691   1.390       .  A
C1168      C1182   1.420       .  A
C1168      C1692   1.384       .  A
C1169      C1177   1.388       .  A
C1169      C1180   1.414       .  A
C1170      C1178   1.386       .  A
C1170      C1181   1.412       .  A
C1171      C1172   1.380   1_556  A
C1171      H1183   1.081       .  S
C1172      H1184   1.082       .  S
C1173      C1174   1.372       .  A
C1173      H1185   1.082       .  S
C1174      H1186   1.082   1_556  S
C1175      C1683   1.387       .  A
C1175      C1176   1.377       .  A
C1175      H1187   1.081       .  S
C1176      C1684   1.387       .  A
C1176      H1188   1.083       .  S
C1177      C1178   1.370       .  A
C1177      H1189   1.082       .  S
C1178      H1190   1.081       .  S
C1179      C1994   1.502       .  S
C1180      C1469   1.483       .  S
C1181      C1473   1.478       .  S
C1182      C1997   1.496       .  S
N1193      C1198   1.358       .  A
N1193      C1197   1.353   1_554  A
N1193      H1225   1.037       .  S
N1194      C1201   1.351       .  A
N1194      C1202   1.353       .  A
N1195      C1200   1.352       .  A
N1195      C1199   1.352   1_554  A
N1195      H1226   1.042       .  S
N1196      C1203   1.354       .  A
N1196      C1204   1.354       .  A
C1197      C1205   1.388       .  A
C1197      C1213   1.421       .  A
C1198      C1214   1.420       .  A
C1198      C1206   1.387       .  A
C1199      C1207   1.389       .  A
C1199      C1216   1.416       .  A
C1200      C1215   1.407       .  A
C1200      C1208   1.384       .  A
C1201      C1213   1.414       .  A
C1201      C1209   1.387       .  A
C1202      C1216   1.415       .  A
C1202      C1210   1.386       .  A
C1203      C1211   1.390       .  A
C1203      C1214   1.421       .  A
C1204      C1212   1.385       .  A
C1204      C1215   1.412       .  A
C1205      C1206   1.376   1_556  A
C1205      H1217   1.083       .  S
C1206      H1218   1.080       .  S
C1207      C1208   1.374   1_556  A
C1207      H1219   1.082       .  S
C1208      H1220   1.082       .  S
C1209      C1210   1.375       .  A
C1209      H1221   1.082       .  S
C1210      H1222   1.082       .  S
C1211      C1212   1.372       .  A
C1211      H1223   1.082       .  S
C1212      H1224   1.082       .  S
C1213      C1466   1.480       .  S
C1214      C1457   1.492       .  S
C1215      C1453   1.489       .  S
C1216      C1461   1.498       .  S
O1227      C1235   1.254       .  A
O1228      C1236   1.272       .  A
O1229      C1237   1.264       .  A
O1230      C1238   1.296       .  A
O1231      C1237   1.256       .  A
O1232      C1238   1.266       .  A
O1233      C1236   1.300       .  A
O1234      C1235   1.268       .  A
C1235      C1477   1.480       .  S
C1236      C1441   1.469       .  S
C1237      C1437   1.477       .  S
C1238      C1462   1.467       .  S
O1239      C1252   1.238       .  A
O1239     Co1247   1.934       .  S
O1240      C1253   1.273       .  A
O1240     Co1248   2.017   1_655  S
O1241      C1254   1.262       .  A
O1241     Co1249   1.982       .  S
O1242      C1255   1.253       .  A
O1242     Co1250   1.986   1_655  S
O1243      C1255   1.249       .  A
O1243     Co1248   1.980   1_655  S
O1244      C1254   1.269       .  A
O1244     Co1247   2.021       .  S
O1245      C1252   1.258       .  A
O1245     Co1250   2.029   1_655  S
O1246      C1253   1.268       .  A
O1246     Co1249   1.986       .  S
Co1247     O1251   1.916       .  S
Co1248     O1251   1.937   1_455  S
Co1249     O1251   2.107       .  S
Co1250     O1251   2.266   1_455  S
C1252      C1465   1.480       .  S
C1253      C1445   1.480       .  S
C1254      C1482   1.488       .  S
C1255      C1449   1.481       .  S
N1256      C1261   1.363       .  A
N1256      C1260   1.357       .  A
N1256      H1288   1.024       .  S
N1257      C1264   1.353       .  A
N1257      C1265   1.360       .  A
N1258      C1263   1.357       .  A
N1258      C1262   1.360       .  A
N1258      H1289   1.033       .  S
N1259      C1266   1.359       .  A
N1259      C1267   1.352       .  A
C1260      C1268   1.394       .  A
C1260      C1276   1.432       .  A
C1261      C1277   1.425       .  A
C1261      C1269   1.383       .  A
C1262      C1270   1.382       .  A
C1262      C1279   1.418       .  A
C1263      C1278   1.430       .  A
C1263      C1271   1.391       .  A
C1264      C1276   1.425       .  A
C1264      C1272   1.391       .  A
C1265      C1279   1.417       .  A
C1265      C1273   1.382       .  A
C1266      C1790   1.385       .  A
C1266      C1277   1.421       .  A
C1267      C1791   1.388       .  A
C1267      C1278   1.420       .  A
C1268      C1269   1.371       .  A
C1270      C1271   1.380       .  A
C1270      H1282   1.083       .  S
C1271      H1283   1.082       .  S
C1272      C1273   1.372       .  A
C1272      H1284   1.082       .  S
C1273      H1285   1.081       .  S
C1274      C1782   1.386   1_545  A
C1274      C1275   1.373       .  A
C1274      H1286   1.082       .  S
C1275      C1783   1.387   1_545  A
C1275      H1287   1.082       .  S
C1276      C1442   1.488       .  S
C1277      C1438   1.513       .  S
C1278      C1485   1.497       .  S
C1279      C1490   1.504       .  S
N1290      C1295   1.360       .  A
N1290      C1294   1.355       .  A
N1290      H1322   1.038       .  S
N1291      C1298   1.350       .  A
N1291      C1299   1.354       .  A
N1292      C1297   1.354       .  A
N1292      C1296   1.357       .  A
N1292      H1323   1.034       .  S
N1293      C1300   1.355       .  A
N1293      C1301   1.354       .  A
C1294      C1302   1.389       .  A
C1294      C1310   1.422       .  A
C1295      C1311   1.421       .  A
C1295      C1303   1.386       .  A
C1296      C1304   1.387       .  A
C1296      C1313   1.423       .  A
C1297      C1312   1.423       .  A
C1297      C1305   1.390       .  A
C1298      C1310   1.412       .  A
C1298      C1306   1.386       .  A
C1299      C1313   1.418       .  A
C1299      C1307   1.387       .  A
C1300      C1824   1.386       .  A
C1300      C1311   1.421       .  A
C1301      C1825   1.386       .  A
C1301      C1312   1.417       .  A
C1302      C1303   1.374       .  A
C1302      H1314   1.082       .  S
C1303      H1315   1.081       .  S
C1304      C1305   1.371       .  A
C1304      H1316   1.082       .  S
C1305      H1317   1.080       .  S
C1306      C1307   1.373       .  A
C1306      H1318   1.083       .  S
C1307      H1319   1.081       .  S
C1308      C1816   1.389   1_545  A
C1308      C1309   1.371       .  A
C1308      H1320   1.082       .  S
C1309      C1817   1.386   1_545  A
C1309      H1321   1.083       .  S
C1310      C1497   1.479       .  S
C1311      C1493   1.508       .  S
C1312      C1446   1.489       .  S
C1313      C1450   1.496       .  S
N1324      C1329   1.355       .  A
N1324      C1328   1.360       .  A
N1324      H1356   1.036       .  S
N1325      C1332   1.352       .  A
N1325      C1333   1.351       .  A
N1326      C1331   1.354       .  A
N1326      C1330   1.350       .  A
N1326      H1357   1.038       .  S
N1327      C1334   1.354       .  A
N1327      C1335   1.356       .  A
C1328      C1336   1.384       .  A
C1328      C1344   1.424       .  A
C1329      C1345   1.427       .  A
C1329      C1337   1.387       .  A
C1330      C1338   1.387       .  A
C1330      C1347   1.411       .  A
C1331      C1346   1.415       .  A
C1331      C1339   1.387       .  A
C1332      C1344   1.408       .  A
C1332      C1856   1.385   1_545  A
C1333      C1347   1.412       .  A
C1333      C1857   1.388   1_545  A
C1334      C1342   1.389       .  A
C1334      C1345   1.420       .  A
C1335      C1343   1.386       .  A
C1335      C1346   1.417       .  A
C1336      C1337   1.377       .  A
C1336      H1348   1.080       .  S
C1337      H1349   1.080       .  S
C1338      C1339   1.376       .  A
C1338      H1350   1.083       .  S
C1339      H1351   1.082       .  S
C1340      C1848   1.387       .  A
C1340      C1341   1.377       .  A
C1340      H1352   1.082       .  S
C1341      C1849   1.386       .  A
C1341      H1353   1.082       .  S
C1342      C1343   1.370       .  A
C1342      H1354   1.082       .  S
C1343      H1355   1.082       .  S
C1344      C1429   1.499   1_545  S
C1345      C1433   1.496       .  S
C1346      C1506   1.494       .  S
C1347      C1502   1.477       .  S
N1358      C1363   1.359       .  A
N1358      C1362   1.354       .  A
N1358      H1390   1.041       .  S
N1359      C1366   1.350       .  A
N1359      C1367   1.354       .  A
N1360      C1365   1.352       .  A
N1360      C1364   1.356       .  A
N1360      H1391   1.033       .  S
N1361      C1368   1.352       .  A
N1361      C1369   1.351       .  A
C1362      C1370   1.390       .  A
C1362      C1378   1.421       .  A
C1363      C1379   1.416       .  A
C1363      C1371   1.385       .  A
C1364      C1372   1.386       .  A
C1364      C1381   1.417       .  A
C1365      C1380   1.420       .  A
C1365      C1373   1.389       .  A
C1366      C1378   1.414       .  A
C1366      C1374   1.388       .  A
C1367      C1381   1.420       .  A
C1367      C1375   1.387       .  A
C1368      C1892   1.386   1_545  A
C1368      C1379   1.411       .  A
C1369      C1893   1.389   1_545  A
C1369      C1380   1.416       .  A
C1370      C1371   1.373       .  A
C1370      H1382   1.082       .  S
C1371      H1383   1.082       .  S
C1372      C1373   1.371       .  A
C1372      H1384   1.082       .  S
C1373      H1385   1.081       .  S
C1374      C1375   1.370       .  A
C1374      H1386   1.083       .  S
C1375      H1387   1.082       .  S
C1376      C1884   1.386       .  A
C1376      C1377   1.374       .  A
C1376      H1388   1.081       .  S
C1377      C1885   1.386       .  A
C1377      H1389   1.081       .  S
C1378      C1514   1.482       .  S
C1379      C1510   1.489       .  S
C1380      C1421   1.479   1_545  S
C1381      C1425   1.492       .  S
O1392      C1400   1.264       .  A
O1392     Co1412   1.989       .  S
O1393      C1401   1.256       .  A
O1393     Co1413   1.979       .  S
O1394     Co1414   1.894   1_455  S
O1395      C1403   1.259       .  A
O1395     Co1415   1.980       .  S
O1396      C1402   1.263       .  A
O1396     Co1413   1.964       .  S
O1397      C1403   1.269       .  A
O1397     Co1412   2.025       .  S
O1398      C1401   1.263       .  A
O1399      C1400   1.266       .  A
O1399     Co1414   1.999       .  S
C1400      C1458   1.485       .  S
C1401      C1434   1.479       .  S
C1402      C1454   1.475       .  S
C1403      C1426   1.478       .  S
O1404      C1417   1.264       .  A
O1404     Co1412   1.980       .  S
O1405      C1418   1.273       .  A
O1405     Co1413   2.013       .  S
O1406      C1419   1.272       .  A
O1406     Co1414   1.998       .  S
O1407      C1420   1.269       .  A
O1408      C1420   1.280       .  A
O1408     Co1413   2.043       .  S
O1409      C1419   1.268       .  A
O1409     Co1412   1.982       .  S
O1410      C1417   1.264       .  A
O1410     Co1415   2.013       .  S
O1411     Co1414   1.977   1_455  S
Co1412     O1416   2.086       .  S
Co1414     O1416   1.941       .  S
Co1415     O1416   1.924       .  S
C1417      C1422   1.467       .  S
C1418      C1470   1.476       .  S
C1419      C1474   1.468       .  S
C1420      C1430   1.494       .  S
C1421      H1423   1.087       .  S
C1421      C1938   1.343       .  D
C1422      H1424   1.085       .  S
C1422      C1937   1.339       .  D
C1425      H1427   1.085       .  S
C1425      C1426   1.345       .  D
C1426      H1428   1.087       .  S
C1429      H1431   1.087       .  S
C1429      C1946   1.341       .  D
C1430      H1432   1.086       .  S
C1430      C1945   1.350       .  D
C1433      H1435   1.087       .  S
C1433      C1434   1.343       .  D
C1434      H1436   1.087       .  S
C1437      H1439   1.085       .  S
C1437      C1954   1.347   1_545  D
C1438      H1440   1.087       .  S
C1438      C1953   1.359       .  D
C1441      H1443   1.086       .  S
C1441      C1442   1.343       .  D
C1442      H1444   1.088       .  S
C1445      H1447   1.087   1_545  S
C1445      C1962   1.344   1_545  D
C1446      H1448   1.087       .  S
C1446      C1961   1.343       .  D
C1449      H1451   1.085       .  S
C1449      C1450   1.352       .  D
C1450      H1452   1.088       .  S
C1453      H1455   1.087       .  S
C1453      C1454   1.347       .  D
C1454      H1456   1.087       .  S
C1457      H1459   1.086       .  S
C1457      C1458   1.356       .  D
C1458      H1460   1.085       .  S
C1461      H1463   1.087       .  S
C1461      C1462   1.347       .  D
C1462      H1464   1.086       .  S
C1465      H1467   1.086       .  S
C1465      C1466   1.349       .  D
C1466      H1468   1.087       .  S
C1469      H1471   1.087       .  S
C1469      C1470   1.346       .  D
C1470      H1472   1.086       .  S
C1473      H1475   1.087       .  S
C1473      C1474   1.343       .  D
C1474      H1476   1.087       .  S
C1477      H1479   1.083       .  S
C1477      C1478   1.352       .  D
C1478      C1695   1.515       .  S
C1478      H1996   1.085       .  S
H1480      C1994   1.087       .  S
C1481      C1698   1.501       .  S
C1481      H1999   1.087       .  S
C1481      C1482   1.351       .  D
C1482      H1484   1.086       .  S
H1483      C1997   1.086       .  S
C1485      H1487   1.087       .  S
C1485      C2002   1.342       .  D
C1486      H1488   1.086       .  S
C1486      C2001   1.349       .  D
C1489      H1491   1.087       .  S
C1489      C1490   1.361       .  D
C1490      H1492   1.087       .  S
C1493      H1495   1.086       .  S
C1493      C2010   1.348       .  D
C1494      H1496   1.086   1_545  S
C1494      C2009   1.345       .  D
C1497      H1499   1.088       .  S
C1497      C1498   1.347       .  D
C1498      H1500   1.086       .  S
C1501      H1503   1.087       .  S
C1501      C2018   1.336       .  D
C1502      H1504   1.089       .  S
C1502      C2017   1.343   1_545  D
C1505      H1507   1.087       .  S
C1505      C1506   1.348       .  D
C1506      H1508   1.087       .  S
C1509      H1511   1.086       .  S
C1509      C2026   1.349       .  D
C1510      H1512   1.087       .  S
C1510      C2025   1.348   1_545  D
C1513      H1515   1.086       .  S
C1513      C1514   1.344       .  D
C1514      H1516   1.087       .  S
C1517      H1519   1.086       .  S
C1517      C1518   1.339       .  D
C1518      H1520   1.087       .  S
C1521      H1523   1.086       .  S
C1521      C1522   1.342       .  D
C1522      H1524   1.087       .  S
C1525      H1527   1.086       .  S
C1525      C1526   1.344       .  D
C1526      H1528   1.086       .  S
C1529      H1531   1.085       .  S
C1529      C1530   1.347       .  D
C1530      H1532   1.086       .  S
C1533      H1535   1.086       .  S
C1533      C1534   1.352       .  D
C1534      H1536   1.087       .  S
C1537      H1539   1.087       .  S
C1537      C1538   1.339       .  D
C1538      H1540   1.085       .  S
C1541      H1543   1.085       .  S
C1541      C1542   1.347       .  D
C1542      H1544   1.087       .  S
C1545      H1547   1.086       .  S
C1545      C1546   1.352       .  D
C1546      H1548   1.085       .  S
N1549      C1554   1.353       .  A
N1549      H1581   1.030       .  S
N1550      C1558   1.352       .  A
N1551      C1555   1.348       .  A
N1551      H1582   1.043   1_565  S
N1552      C1560   1.345       .  A
C1553      C1561   1.390       .  A
C1553      C1569   1.420       .  A
C1554      C1570   1.411       .  A
C1554      C1562   1.385       .  A
C1555      C1563   1.389       .  A
C1555      C1572   1.414       .  A
C1556      C1571   1.417       .  A
C1556      C1564   1.385       .  A
C1557      C1569   1.420       .  A
C1557      C1565   1.385       .  A
C1558      C1572   1.419       .  A
C1558      C1566   1.389       .  A
C1559      C1567   1.385       .  A
C1559      C1570   1.410       .  A
C1560      C1568   1.387       .  A
C1560      C1571   1.403       .  A
C1561      H1573   1.081       .  S
C1562      H1574   1.082       .  S
C1563      H1575   1.082       .  S
C1564      H1576   1.082       .  S
C1565      H1577   1.083       .  S
C1566      H1578   1.082       .  S
C1567      H1579   1.082       .  S
C1568      H1580   1.081       .  S
C1569      C2057   1.500       .  S
C1570      C2050   1.479       .  S
C1571      C2053   1.480       .  S
C1572      C2061   1.486       .  S
N1583      C1588   1.350       .  A
N1583      C1587   1.349       .  A
N1583      H1615   1.041       .  S
N1584      C1592   1.357       .  A
N1585      C1590   1.359       .  A
N1585      C1589   1.355       .  A
N1585      H1616   1.043       .  S
N1586      C1594   1.348       .  A
C1587      C1595   1.385       .  A
C1587      C1603   1.407       .  A
C1588      C1604   1.408       .  A
C1588      C1596   1.389       .  A
C1589      C1597   1.384       .  A
C1589      C1606   1.420       .  A
C1590      C1605   1.426       .  A
C1590      C1598   1.390       .  A
C1591      C1603   1.412       .  A
C1591      C1599   1.386       .  A
C1592      C1606   1.419       .  A
C1592      C1600   1.386       .  A
C1593      C1601   1.387       .  A
C1593      C1604   1.412       .  A
C1594      C1602   1.389       .  A
C1594      C1605   1.411       .  A
C1595      C1596   1.374       .  A
C1595      H1607   1.082       .  S
C1596      H1608   1.082       .  S
C1597      C1598   1.380       .  A
C1597      H1609   1.082       .  S
C1598      H1610   1.080       .  S
C1599      H1611   1.082       .  S
C1600      H1612   1.082       .  S
C1601      H1613   1.081       .  S
C1602      H1614   1.083       .  S
C1603      C2034   1.487       .  S
C1604      C2041   1.477       .  S
C1605      C2045   1.494       .  S
C1606      C2037   1.509       .  S
O1617      C1625   1.260       .  A
O1617     Co1637   1.959       .  S
O1618      C1626   1.259       .  A
O1618     Co1638   1.973       .  S
O1619      C1627   1.267       .  A
O1619     Co1639   2.000       .  S
O1620      C1628   1.287       .  A
O1620     Co1640   2.042       .  S
O1621      C1627   1.260       .  A
O1621     Co1638   1.976       .  S
O1622      C1628   1.260       .  A
O1622     Co1637   1.983       .  S
O1623      C1626   1.287       .  A
O1623     Co1640   2.047       .  S
O1624      C1625   1.264       .  A
O1624     Co1639   2.023       .  S
C1625      C2046   1.477       .  S
C1626      C2021   1.478       .  S
C1627      C2042   1.468       .  S
C1628      C2029   1.478       .  S
O1629      C1642   1.259       .  A
O1629     Co1637   2.011       .  S
O1630      C1643   1.268       .  A
O1630     Co1638   2.008       .  S
O1631      C1644   1.266       .  A
O1631     Co1639   1.900       .  S
O1632      C1645   1.258       .  A
O1632     Co1640   1.858       .  S
O1633      C1645   1.292       .  A
O1633     Co1638   2.091       .  S
O1634      C1644   1.290       .  A
O1634     Co1637   2.063       .  S
O1635      C1642   1.250       .  A
O1635     Co1640   1.965       .  S
O1636      C1643   1.266       .  A
O1636     Co1639   1.985       .  S
Co1637     O1641   2.143       .  S
Co1638     O1641   2.145       .  S
Co1639     O1641   1.971       .  S
Co1640     O1641   1.924       .  S
C1642      C2025   1.484       .  S
C1643      C2058   1.490       .  S
C1644      C2062   1.468       .  S
C1645      C2017   1.462       .  S
O1646      C1654   1.255       .  A
O1646     Co1666   1.996       .  S
O1647      C1655   1.253       .  A
O1647     Co1667   1.974       .  S
O1648      C1656   1.267       .  A
O1648     Co1668   2.000       .  S
O1649      C1657   1.255       .  A
O1649     Co1669   1.947       .  S
O1650      C1656   1.261       .  A
O1650     Co1667   1.963       .  S
O1651      C1657   1.282       .  A
O1651     Co1666   2.064       .  S
O1652      C1655   1.259       .  A
O1652     Co1669   1.981       .  S
O1653      C1654   1.253       .  A
O1653     Co1668   1.989       .  S
C1654      C2038   1.488       .  S
C1655      C2005   1.465       .  S
C1656      C2033   1.468       .  S
C1657      C2014   1.496       .  S
O1658      C1671   1.259       .  A
O1658     Co1666   2.001       .  S
O1659      C1672   1.249       .  A
O1659     Co1667   1.936       .  S
O1660      C1673   1.284       .  A
O1660     Co1668   2.024       .  S
O1661      C1674   1.275       .  A
O1661     Co1669   2.043       .  S
O1662      C1674   1.249       .  A
O1662     Co1667   1.944       .  S
O1663      C1673   1.282       .  A
O1663     Co1666   1.919       .  S
O1664      C1671   1.260       .  A
O1664     Co1669   2.007       .  S
O1665      C1672   1.271       .  A
O1665     Co1668   2.014       .  S
Co1666     O1670   1.993       .  S
Co1667     O1670   2.002       .  S
Co1668     O1670   2.178       .  S
Co1669     O1670   2.086       .  S
C1671      C2010   1.486       .  S
C1672      C2049   1.457       .  S
C1673      C2054   1.466       .  S
C1674      C2002   1.475       .  S
N1675      C1680   1.351   1_556  A
N1675      C1679   1.354       .  A
N1675      H1707   1.043   1_565  S
N1676      C1683   1.359       .  A
N1676      C1684   1.354       .  A
N1677      C1682   1.359       .  A
N1677      C1681   1.356   1_554  A
N1677      H1708   1.042   1_565  S
N1678      C1685   1.354       .  A
N1678      C1686   1.355       .  A
C1679      C1687   1.389       .  A
C1679      C1695   1.419   1_565  A
C1680      C1696   1.409       .  A
C1680      C1688   1.386   1_554  A
C1681      C1689   1.388       .  A
C1681      C1698   1.423   1_565  A
C1682      C1697   1.421       .  A
C1682      C1690   1.385       .  A
C1683      C1695   1.423       .  A
C1684      C1698   1.420       .  A
C1685      C1693   1.388       .  A
C1685      C1696   1.416       .  A
C1686      C1694   1.385       .  A
C1686      C1697   1.414       .  A
C1687      C1688   1.378       .  A
C1687      H1699   1.082       .  S
C1688      H1700   1.082       .  S
C1689      C1690   1.379   1_556  A
C1689      H1701   1.081       .  S
C1690      H1702   1.082       .  S
C1691      C1692   1.376       .  A
C1691      H1703   1.082       .  S
C1692      H1704   1.082       .  S
C1693      C1694   1.371       .  A
C1693      H1705   1.081       .  S
C1694      H1706   1.082       .  S
C1696      C1985   1.484       .  S
C1697      C1989   1.503       .  S
N1709      C1714   1.355   1_556  A
N1709      C1713   1.355       .  A
N1709      H1741   1.041   1_556  S
N1710      C1717   1.355       .  A
N1710      C1718   1.351       .  A
N1711      C1716   1.357   1_556  A
N1711      C1715   1.353       .  A
N1711      H1742   1.040   1_556  S
N1712      C1719   1.353       .  A
N1712      C1720   1.356       .  A
C1713      C1721   1.383       .  A
C1713      C1729   1.413       .  A
C1714      C1730   1.422       .  A
C1714      C1722   1.389       .  A
C1715      C1723   1.389       .  A
C1715      C1732   1.417       .  A
C1716      C1731   1.422       .  A
C1716      C1724   1.388       .  A
C1717      C1729   1.412       .  A
C1717      C1725   1.385       .  A
C1718      C1732   1.415       .  A
C1718      C1726   1.390       .  A
C1719      C1727   1.385       .  A
C1719      C1730   1.416       .  A
C1720      C1728   1.386       .  A
C1720      C1731   1.423       .  A
C1721      C1722   1.379   1_556  A
C1721      H1733   1.081       .  S
C1722      H1734   1.081       .  S
C1723      C1724   1.377   1_556  A
C1723      H1735   1.080       .  S
C1724      H1736   1.082       .  S
C1725      C1726   1.373       .  A
C1725      H1737   1.082       .  S
C1726      H1738   1.082       .  S
C1727      C1728   1.375       .  A
C1727      H1739   1.082       .  S
C1728      H1740   1.082       .  S
C1729      C1982   1.493       .  S
C1730      C1973   1.500       .  S
C1731      C1969   1.514       .  S
C1732      C1977   1.479       .  S
O1743      C1751   1.245       .  A
O1744      C1752   1.273       .  A
O1745      C1753   1.274       .  A
O1746      C1754   1.246       .  A
O1747      C1753   1.272       .  A
O1748      C1754   1.254       .  A
O1749      C1752   1.301       .  A
O1750      C1751   1.279       .  A
C1751      C1993   1.501       .  S
C1752      C1957   1.463       .  S
C1753      C1953   1.504       .  S
C1754      C1978   1.472       .  S
O1755      C1768   1.242       .  A
O1755     Co1763   1.956       .  S
O1756      C1769   1.272       .  A
O1756     Co1764   2.011   1_655  S
O1757      C1770   1.251       .  A
O1757     Co1765   1.954       .  S
O1758      C1771   1.252       .  A
O1758     Co1766   1.993   1_655  S
O1759      C1771   1.252       .  A
O1759     Co1764   1.982   1_655  S
O1760      C1770   1.271       .  A
O1760     Co1763   2.030       .  S
O1761      C1768   1.260       .  A
O1761     Co1766   2.033   1_655  S
O1762      C1769   1.266       .  A
O1762     Co1765   1.983       .  S
Co1763     O1767   1.920       .  S
Co1764     O1767   1.953   1_455  S
Co1765     O1767   2.104       .  S
Co1766     O1767   2.256   1_455  S
C1768      C1981   1.489       .  S
C1769      C1961   1.472       .  S
C1770      C1998   1.480       .  S
C1771      C1965   1.483       .  S
N1772      C1777   1.354       .  A
N1772      C1776   1.356       .  A
N1772      H1804   1.033       .  S
N1773      C1780   1.351       .  A
N1773      C1781   1.350       .  A
N1774      C1779   1.359       .  A
N1774      C1778   1.357       .  A
N1774      H1805   1.041       .  S
N1775      C1782   1.354       .  A
N1775      C1783   1.354       .  A
C1776      C1784   1.388       .  A
C1776      C1792   1.420       .  A
C1777      C1793   1.419       .  A
C1777      C1785   1.387       .  A
C1778      C1786   1.389       .  A
C1778      C1795   1.419       .  A
C1779      C1794   1.421       .  A
C1779      C1787   1.386       .  A
C1780      C1792   1.412       .  A
C1780      C1788   1.385       .  A
C1781      C1795   1.416       .  A
C1781      C1789   1.391       .  A
C1782      C1793   1.418       .  A
C1783      C1794   1.418       .  A
C1784      C1785   1.368       .  A
C1786      C1787   1.369       .  A
C1786      H1798   1.082       .  S
C1787      H1799   1.081       .  S
C1788      C1789   1.361       .  A
C1788      H1800   1.083       .  S
C1789      H1801   1.079       .  S
C1790      C1791   1.375       .  A
C1790      H1802   1.081       .  S
C1791      H1803   1.082       .  S
C1792      C1958   1.483       .  S
C1793      C1954   1.484       .  S
C1794      C2001   1.500   1_565  S
C1795      C2006   1.481       .  S
N1806      C1811   1.367       .  A
N1806      C1810   1.360       .  A
N1806      H1838   1.035       .  S
N1807      C1814   1.358       .  A
N1807      C1815   1.359       .  A
N1808      C1813   1.359       .  A
N1808      C1812   1.357       .  A
N1808      H1839   1.039       .  S
N1809      C1816   1.352       .  A
N1809      C1817   1.351       .  A
C1810      C1818   1.391       .  A
C1810      C1826   1.437       .  A
C1811      C1827   1.435       .  A
C1811      C1819   1.386       .  A
C1812      C1820   1.387       .  A
C1812      C1829   1.423       .  A
C1813      C1828   1.423       .  A
C1813      C1821   1.388       .  A
C1814      C1826   1.427       .  A
C1814      C1822   1.390       .  A
C1815      C1829   1.422       .  A
C1815      C1823   1.384       .  A
C1816      C1827   1.419       .  A
C1817      C1828   1.414       .  A
C1818      C1819   1.372       .  A
C1818      H1830   1.082       .  S
C1819      H1831   1.080       .  S
C1820      C1821   1.375       .  A
C1820      H1832   1.082       .  S
C1821      H1833   1.082       .  S
C1822      C1823   1.370       .  A
C1822      H1834   1.080       .  S
C1823      H1835   1.082       .  S
C1824      C1825   1.374       .  A
C1824      H1836   1.082       .  S
C1825      H1837   1.082       .  S
C1826      C2013   1.502       .  S
C1827      C2009   1.510   1_565  S
C1828      C1962   1.492       .  S
C1829      C1966   1.507       .  S
N1840      C1845   1.356       .  A
N1840      C1844   1.358       .  A
N1840      H1872   1.036       .  S
N1841      C1848   1.356       .  A
N1841      C1849   1.355       .  A
N1842      C1847   1.354       .  A
N1842      C1846   1.351       .  A
N1842      H1873   1.037       .  S
N1843      C1850   1.354       .  A
N1843      C1851   1.355       .  A
C1844      C1852   1.386       .  A
C1844      C1860   1.421       .  A
C1845      C1861   1.423       .  A
C1845      C1853   1.388       .  A
C1846      C1854   1.389       .  A
C1846      C1863   1.413       .  A
C1847      C1862   1.411       .  A
C1847      C1855   1.385       .  A
C1848      C1860   1.423       .  A
C1849      C1863   1.420       .  A
C1850      C1858   1.389       .  A
C1850      C1861   1.419       .  A
C1851      C1859   1.384       .  A
C1851      C1862   1.416       .  A
C1852      C1853   1.377       .  A
C1852      H1864   1.082       .  S
C1853      H1865   1.082       .  S
C1854      C1855   1.369       .  A
C1854      H1866   1.083       .  S
C1855      H1867   1.081       .  S
C1856      C1857   1.365       .  A
C1856      H1868   1.083       .  S
C1857      H1869   1.081       .  S
C1858      C1859   1.370       .  A
C1858      H1870   1.081       .  S
C1859      H1871   1.082       .  S
C1860      C1945   1.503       .  S
C1861      C1949   1.490       .  S
C1862      C2022   1.493       .  S
C1863      C2018   1.485       .  S
N1874      C1879   1.360       .  A
N1874      C1878   1.358       .  A
N1874      H1906   1.035       .  S
N1875      C1882   1.353       .  A
N1875      C1883   1.354       .  A
N1876      C1881   1.352       .  A
N1876      C1880   1.354       .  A
N1876      H1907   1.037       .  S
N1877      C1884   1.353       .  A
N1877      C1885   1.354       .  A
C1878      C1886   1.390       .  A
C1878      C1894   1.430       .  A
C1879      C1895   1.424       .  A
C1879      C1887   1.384       .  A
C1880      C1888   1.384       .  A
C1880      C1897   1.410       .  A
C1881      C1896   1.416       .  A
C1881      C1889   1.390       .  A
C1882      C1894   1.422       .  A
C1882      C1890   1.391       .  A
C1883      C1897   1.414       .  A
C1883      C1891   1.383       .  A
C1884      C1895   1.417       .  A
C1885      C1896   1.419       .  A
C1886      C1887   1.376       .  A
C1886      H1898   1.081       .  S
C1887      H1899   1.082       .  S
C1888      C1889   1.371       .  A
C1888      H1900   1.082       .  S
C1889      H1901   1.082       .  S
C1890      C1891   1.370       .  A
C1890      H1902   1.080       .  S
C1891      H1903   1.082       .  S
C1892      C1893   1.368       .  A
C1892      H1904   1.082       .  S
C1893      H1905   1.082       .  S
C1894      C2030   1.495       .  S
C1895      C2026   1.497       .  S
C1896      C1937   1.490       .  S
C1897      C1941   1.486       .  S
O1908      C1916   1.273       .  A
O1908     Co1928   1.983       .  S
O1909      C1917   1.322       .  A
O1909     Co1929   2.179       .  S
O1910     Co1930   2.022   1_455  S
O1911      C1919   1.287       .  A
O1911     Co1931   2.069       .  S
O1912      C1918   1.260       .  A
O1912     Co1929   1.987       .  S
O1913      C1919   1.270       .  A
O1913     Co1928   1.931       .  S
O1914      C1917   1.273       .  A
O1915      C1916   1.277       .  A
O1915     Co1930   2.024       .  S
C1916      C1974   1.477       .  S
C1917      C1950   1.477       .  S
C1918      C1970   1.483       .  S
C1919      C1942   1.483       .  S
O1920      C1933   1.295       .  A
O1920     Co1928   2.101       .  S
O1921      C1934   1.259       .  A
O1921     Co1929   1.977       .  S
O1922      C1935   1.261       .  A
O1922     Co1930   1.984       .  S
O1923      C1936   1.253       .  A
O1924      C1936   1.228       .  A
O1924     Co1929   1.951       .  S
O1925      C1935   1.266       .  A
O1925     Co1928   2.016       .  S
O1926      C1933   1.264       .  A
O1926     Co1931   1.885       .  S
O1927     Co1930   1.976   1_455  S
Co1928     O1932   2.040       .  S
Co1930     O1932   2.052       .  S
Co1931     O1932   2.015       .  S
C1933      C1938   1.468       .  S
C1934      C1986   1.474       .  S
C1935      C1990   1.491       .  S
C1936      C1946   1.485       .  S
C1937      H1939   1.086       .  S
C1938      H1940   1.086       .  S
C1941      H1943   1.086       .  S
C1941      C1942   1.349       .  D
C1942      H1944   1.086       .  S
C1945      H1947   1.086       .  S
C1946      H1948   1.086   1_565  S
C1949      H1951   1.089       .  S
C1949      C1950   1.354       .  D
C1950      H1952   1.085       .  S
C1953      H1955   1.086       .  S
C1954      H1956   1.084       .  S
C1957      H1959   1.086       .  S
C1957      C1958   1.339       .  D
C1958      H1960   1.086       .  S
C1961      H1963   1.087       .  S
C1962      H1964   1.086   1_565  S
C1965      H1967   1.086       .  S
C1965      C1966   1.351       .  D
C1966      H1968   1.087       .  S
C1969      H1971   1.086       .  S
C1969      C1970   1.349       .  D
C1970      H1972   1.085       .  S
C1973      H1975   1.087       .  S
C1973      C1974   1.349       .  D
C1974      H1976   1.085       .  S
C1977      H1979   1.087       .  S
C1977      C1978   1.342       .  D
C1978      H1980   1.086       .  S
C1981      H1983   1.086       .  S
C1981      C1982   1.350       .  D
C1982      H1984   1.087       .  S
C1985      H1987   1.087       .  S
C1985      C1986   1.347       .  D
C1986      H1988   1.087       .  S
C1989      H1991   1.086       .  S
C1989      C1990   1.350       .  D
C1990      H1992   1.086       .  S
C1993      H1995   1.085       .  S
C1993      C1994   1.364       .  D
C1997      C1998   1.358       .  D
C1998      H2000   1.086       .  S
C2001      H2003   1.087       .  S
C2002      H2004   1.087       .  S
C2005      H2007   1.087       .  S
C2005      C2006   1.343       .  D
C2006      H2008   1.087       .  S
C2009      H2011   1.087       .  S
C2010      H2012   1.087       .  S
C2013      H2015   1.086       .  S
C2013      C2014   1.364       .  D
C2014      H2016   1.086       .  S
C2017      H2019   1.086       .  S
C2018      H2020   1.087       .  S
C2021      H2023   1.087       .  S
C2021      C2022   1.341       .  D
C2022      H2024   1.087       .  S
C2025      H2027   1.086   1_565  S
C2026      H2028   1.087       .  S
C2029      H2031   1.086       .  S
C2029      C2030   1.344       .  D
C2030      H2032   1.075       .  S
C2033      H2035   1.087       .  S
C2033      C2034   1.344       .  D
C2034      H2036   1.087       .  S
C2037      H2039   1.086       .  S
C2037      C2038   1.348       .  D
C2038      H2040   1.086       .  S
C2041      H2043   1.087       .  S
C2041      C2042   1.341       .  D
C2042      H2044   1.087       .  S
C2045      H2047   1.089       .  S
C2045      C2046   1.345       .  D
C2046      H2048   1.085       .  S
C2049      H2051   1.086       .  S
C2049      C2050   1.340       .  D
C2050      H2052   1.088       .  S
C2053      H2055   1.089       .  S
C2053      C2054   1.330       .  D
C2054      H2056   1.086       .  S
C2057      H2059   1.087       .  S
C2057      C2058   1.355       .  D
C2058      H2060   1.086   1_565  S
C2061      H2063   1.087       .  S
C2061      C2062   1.348       .  D
C2062      H2064   1.086       .  S
