geometry optimzed in LAMMPS
_audit_creation_date              2020-12-01 
_audit_creation_method            'lammps2cif' 
_symmetry_space_group_name_H-M    'P1' 
_symmetry_Int_Tables_number       1 
_symmetry_cell_setting            triclinic 
loop_ 
_symmetry_equiv_pos_as_xyz 
  x,y,z 
_cell_length_a                    70.82339505 
_cell_length_b                    70.65447243545755 
_cell_length_c                    70.6785111890797 
_cell_angle_alpha                 89.85782896041431 
_cell_angle_beta                  89.55263921338751 
_cell_angle_gamma                 89.9634634496691 
loop_ 
_atom_site_label 
_atom_site_type_symbol 
_atom_site_fract_x 
_atom_site_fract_y 
_atom_site_fract_z 
_atom_site_charge 
C1          C  0.74050962  0.01014184  0.00476210     0.86400
C2          C  0.76184620  0.01410750  0.00638832    -0.53900
C3          C  0.77306527  0.00319124  0.99489788     0.09300
C4          C  0.76160505  0.98960132  0.98247090     0.20200
C5          C  0.73631968  0.01288006  0.98351321    -0.54600
C6          C  0.74745232  0.00215844  0.97190158     0.09400
C7          C  0.73854571  0.98869433  0.00803466    -0.54100
C8          C  0.74969634  0.97793957  0.99646371     0.10000
H9          H  0.76737836  0.02467901  0.01596336     0.14500
H10         H  0.76994777  0.98051873  0.97282430     0.00200
H11         H  0.72604799  0.02259420  0.97775197     0.14800
H12         H  0.72951592  0.98264039  0.01896138     0.14600
C13         C  0.74827352  0.73465853  0.73941420     0.86400
C14         C  0.74391057  0.75563636  0.73541148    -0.53900
C15         C  0.75300529  0.76812865  0.74697369     0.09300
C16         C  0.76562780  0.75833008  0.76173170     0.20200
C17         C  0.77007817  0.73356815  0.73826507    -0.54600
C18         C  0.77913537  0.74596524  0.74993832     0.09400
C19         C  0.74373538  0.73184701  0.76050793    -0.54100
C20         C  0.75280879  0.74410105  0.77226823     0.10000
H21         H  0.73448909  0.76012224  0.72421623     0.14500
H22         H  0.77315718  0.76813695  0.77128666     0.00200
H23         H  0.77798853  0.72450111  0.72879668     0.14800
H24         H  0.73419159  0.72093263  0.76566122     0.14600
C25         C  0.01629693  0.00525912  0.72212947     0.86400
C26         C  0.01888290  0.98375473  0.71969740    -0.53900
C27         C  0.00621262  0.97309335  0.72982269     0.09300
C28         C  0.99238717  0.98492844  0.74176378     0.20200
C29         C  0.99531015  0.00899029  0.71733981    -0.54600
C30         C  0.98294275  0.99834921  0.72770413     0.09400
C31         C  0.01720724  0.00845714  0.74374356    -0.54100
C32         C  0.00485165  0.99762138  0.75410125     0.10000
H33         H  0.02953561  0.97759681  0.71045032     0.14500
H34         H  0.98220915  0.97617638  0.74991302     0.00200
H35         H  0.99033081  0.01960500  0.70748285     0.14800
H36         H  0.02671658  0.01855187  0.75019976     0.14600
C37         C  0.24901467  0.24121666  0.73777523     0.86400
C38         C  0.24672432  0.23806638  0.75931405    -0.53900
C39         C  0.25910575  0.24825387  0.76995658     0.09300
C40         C  0.27249631  0.26078888  0.75820256     0.20200
C41         C  0.24729661  0.26277189  0.73517716    -0.54600
C42         C  0.25945195  0.27316265  0.74596817     0.09400
C43         C  0.26996388  0.23671424  0.73387716    -0.54100
C44         C  0.28220028  0.24711652  0.74437423     0.10000
H45         H  0.23701015  0.22818326  0.76586412     0.14500
H46         H  0.28249517  0.26883925  0.76707384     0.00200
H47         H  0.23727125  0.26911493  0.72550633     0.14800
H48         H  0.27470811  0.22643447  0.72346834     0.14600
O49         O  0.49657860  0.26568286  0.79477407    -0.78600
C50         C  0.50690505  0.30871133  0.75166176     0.82400
O51         O  0.46520772  0.24341879  0.73890443    -0.79700
O52         O  0.51932325  0.26854501  0.70612068    -0.81200
O53         O  0.55322198  0.24548987  0.76183532    -0.81000
O54         O  0.51963004  0.24430296  0.79549286    -0.79600
Zn55       Zn  0.49202731  0.27101673  0.76702533     1.55700
O56         O  0.55278534  0.26801619  0.73967232    -0.81000
Cd57       Cd  0.52508392  0.23948029  0.76707978     1.59700
Cd58       Cd  0.49354198  0.23913493  0.73408449     1.59600
O59         O  0.52060650  0.21087396  0.76192767    -0.81000
O60         O  0.50859220  0.25581574  0.75097377    -1.91500
Cd61       Cd  0.52445039  0.27275415  0.73467442     1.59900
O62         O  0.49914579  0.21087764  0.73907059    -0.81000
O63         O  0.51853238  0.30083367  0.74029662    -0.79600
C64         C  0.45620088  0.25442566  0.75000092     0.82900
C65         C  0.50784100  0.25505665  0.80396294     0.82500
O66         O  0.49622520  0.29898000  0.76254124    -0.78600
C67         C  0.56174559  0.25694418  0.75071262     0.83400
O68         O  0.46472224  0.26547956  0.76132038    -0.78700
C69         C  0.50991258  0.20207043  0.75047757     0.83500
C70         C  0.50873563  0.25713054  0.69713857     0.83800
O71         O  0.49848767  0.24498787  0.70575855    -0.81100
C72         C  0.51439728  0.51684789  0.73255882     0.86400
C73         C  0.51798328  0.49547325  0.73041840    -0.53900
C74         C  0.50708461  0.48432064  0.74191467     0.09300
C75         C  0.49359553  0.49562580  0.75468271     0.20200
C76         C  0.49300585  0.51923149  0.72965196    -0.54600
C77         C  0.48208417  0.50815535  0.74124169     0.09400
C78         C  0.51721914  0.52059374  0.75400298    -0.54100
C79         C  0.50635963  0.50929840  0.76555269     0.10000
H80         H  0.52817221  0.48972939  0.72040823     0.14500
H81         H  0.48471896  0.48661430  0.76399705     0.00200
H82         H  0.48709478  0.52894796  0.71934518     0.14800
H83         H  0.52707377  0.53067691  0.75981015     0.14600
C84         C  0.52140089  0.23424352  0.01205173     0.86400
C85         C  0.52475869  0.23279435  0.99042707    -0.53900
C86         C  0.51313260  0.24401787  0.97985383     0.09300
C87         C  0.49924565  0.25571896  0.99184786     0.20200
C88         C  0.52319507  0.25553192  0.01631647    -0.54600
C89         C  0.51148407  0.26676569  0.00586538     0.09400
C90         C  0.50020945  0.22987664  0.01453660    -0.54100
C91         C  0.48857887  0.24113514  0.00402662     0.10000
H92         H  0.53517151  0.22383468  0.98370258     0.14500
H93         H  0.48989554  0.26496693  0.98338133     0.00200
H94         H  0.53248163  0.26111557  0.02710477     0.14800
H95         H  0.49494954  0.21876848  0.02381657     0.14600
O96         O  0.75976437  0.79401510  0.99047301    -0.78600
C97         C  0.80360964  0.75140686  0.00062447     0.82400
O98         O  0.74038116  0.73797824  0.95651732    -0.79700
O99         O  0.76373438  0.70485593  0.01140756    -0.81200
O100        O  0.73917586  0.75953483  0.04617606    -0.81000
O101        O  0.73804219  0.79287109  0.01333958    -0.79600
Zn102      Zn  0.76610288  0.76639549  0.98524176     1.55700
O103        O  0.76249072  0.73837454  0.04633034    -0.81000
Cd104      Cd  0.73396197  0.76447670  0.01787643     1.59700
Cd105      Cd  0.73491632  0.73282332  0.98484404     1.59600
O106        O  0.70589163  0.75911627  0.01236162    -0.81000
O107        O  0.75096468  0.74942300  0.00112489    -1.91500
Cd108      Cd  0.76759956  0.73340304  0.01753202     1.59900
O109        O  0.70624513  0.73769876  0.98930692    -0.81000
O110        O  0.79569725  0.73962370  0.01185887    -0.79600
C111        C  0.75132552  0.74966085  0.94814334     0.82900
C112        C  0.74853285  0.80224916  0.00202512     0.82500
O113        O  0.79394893  0.76237067  0.99008610    -0.78600
C114        C  0.75089175  0.74918328  0.05508106     0.83400
O115        O  0.76162729  0.76111698  0.95742536    -0.78700
C116        C  0.69728781  0.74857074  0.00063597     0.83500
C117        C  0.75293716  0.69594090  0.00010317     0.83800
O118        O  0.74108406  0.70456484  0.98965042    -0.81100
C119        C  0.89669464  0.36131291  0.88541099     0.86400
C120        C  0.88612945  0.37637268  0.89686632    -0.53900
C121        C  0.87459492  0.38778395  0.88646967     0.09300
C122        C  0.87473358  0.38312361  0.86514628     0.20200
C123        C  0.88125175  0.35063897  0.87470455    -0.54600
C124        C  0.86976983  0.36189892  0.86400423     0.09400
C125        C  0.90715071  0.37266775  0.86988388    -0.54100
C126        C  0.89571224  0.38406736  0.85927628     0.10000
H127        H  0.88741363  0.37759870  0.91212216     0.14500
H128        H  0.86539245  0.39236297  0.85660009     0.00200
H129        H  0.87997314  0.33532379  0.87510237     0.14800
H130        H  0.92221602  0.37228217  0.86737148     0.14600
C131        C  0.99501447  0.48212760  0.75155646     0.86400
C132        C  0.01673859  0.48126433  0.75339196    -0.53900
C133        C  0.02623791  0.49299112  0.74124046     0.09300
C134        C  0.01324393  0.50456747  0.72831183     0.20200
C135        C  0.99030129  0.50327283  0.75410602    -0.54600
C136        C  0.99969747  0.51494057  0.74183007     0.09400
C137        C  0.99145872  0.47808861  0.73047780    -0.54100
C138        C  0.00102656  0.48972657  0.71820259     0.10000
H139        H  0.02434104  0.47268743  0.76346317     0.14500
H140        H  0.02114773  0.51414253  0.71865265     0.00200
H141        H  0.98016139  0.50850608  0.76444934     0.14800
H142        H  0.98202289  0.46696910  0.72580586     0.14600
C143        C  0.76468232  0.48859911  0.98022506     0.86400
C144        C  0.76800162  0.48598314  0.00166634    -0.53900
C145        C  0.75633824  0.49656896  0.01289702     0.09300
C146        C  0.74227992  0.50876509  0.00171198     0.20200
C147        C  0.74354887  0.48435962  0.97761120    -0.54600
C148        C  0.73172009  0.49496905  0.98871049     0.09400
C149        C  0.76648100  0.51011030  0.97711306    -0.54100
C150        C  0.75464560  0.52067307  0.98823000     0.10000
H151        H  0.77856268  0.47688874  0.00785750     0.14500
H152        H  0.73303123  0.51756171  0.01086465     0.00200
H153        H  0.73848836  0.47386589  0.96767037     0.14800
H154        H  0.77593110  0.51635656  0.96666132     0.14600
C155        C  0.24134465  0.00125170  0.51310691     0.86400
C156        C  0.23767835  0.00471669  0.49197362    -0.53900
C157        C  0.24909363  0.99459113  0.48010879     0.09300
C158        C  0.26327592  0.98184716  0.49053424     0.20200
C159        C  0.23957815  0.97954787  0.51546127    -0.54600
C160        C  0.25111339  0.96945686  0.50365067     0.09400
C161        C  0.26259991  0.00513948  0.51572056    -0.54100
C162        C  0.27421756  0.99491595  0.50398521     0.10000
H163        H  0.22689447  0.01436837  0.48689368     0.14500
H164        H  0.27218798  0.97331455  0.48085678     0.00200
H165        H  0.23062043  0.97242180  0.52565762     0.14800
H166        H  0.26785876  0.01508545  0.52609970     0.14600
C167        C  0.14842104  0.13884713  0.63553872     0.86400
C168        C  0.13567566  0.15046228  0.62250268    -0.53900
C169        C  0.12506588  0.13995831  0.61037659     0.09300
C170        C  0.12794253  0.11841094  0.61263142     0.20200
C171        C  0.13517093  0.12486298  0.64559868    -0.54600
C172        C  0.12420637  0.11414398  0.63386165     0.09400
C173        C  0.16006085  0.12640992  0.62189858    -0.54100
C174        C  0.14939960  0.11579260  0.60992263     0.10000
H175        H  0.13539368  0.16583782  0.62261664     0.14500
H176        H  0.11941005  0.11001476  0.60259105     0.00200
H177        H  0.13500076  0.12343172  0.66088149     0.14800
H178        H  0.17530736  0.12575887  0.62129665     0.14600
C179        C  0.01153563  0.73395213  0.99552352     0.86400
C180        C  0.01345035  0.73069367  0.97393723    -0.53900
C181        C  0.00109032  0.74115758  0.96338601     0.09300
C182        C  0.98796983  0.75376104  0.97532551     0.20200
C183        C  0.01372137  0.75550471  0.99775328    -0.54600
C184        C  0.00143075  0.76584910  0.98714439     0.09400
C185        C  0.99064381  0.73000892  0.00001687    -0.54100
C186        C  0.97824376  0.74050449  0.98966190     0.10000
H187        H  0.02370284  0.72145843  0.96728516     0.14500
H188        H  0.97800572  0.76244815  0.96695754     0.00200
H189        H  0.02439295  0.76196277  0.00660244     0.14800
H190        H  0.98614856  0.71998040  0.01081016     0.14600
C191        C  0.24281690  0.50666108  0.01166299     0.86400
C192        C  0.24034194  0.48513698  0.01406994    -0.53900
C193        C  0.25051158  0.47466116  0.00140253     0.09300
C194        C  0.26242596  0.48658352  0.98764597     0.20200
C195        C  0.26442196  0.50971147  0.01291274    -0.54600
C196        C  0.27460208  0.49920992  0.00025373     0.09400
C197        C  0.23818998  0.51060017  0.99070262    -0.54100
C198        C  0.24836250  0.50003950  0.97790836     0.10000
H199        H  0.23110448  0.47880333  0.02465968     0.14500
H200        H  0.27105852  0.47760564  0.97818418     0.00200
H201        H  0.27140606  0.51921533  0.02255906     0.14800
H202        H  0.22782925  0.52112156  0.98664914     0.14600
C203        C  0.23941046  0.73060186  0.23424941     0.86400
C204        C  0.26073301  0.72675036  0.23181786    -0.53900
C205        C  0.27209752  0.73818324  0.24236861     0.09300
C206        C  0.26098735  0.75223585  0.25473825     0.20200
C207        C  0.23588186  0.72880470  0.25577291    -0.54600
C208        C  0.24706327  0.74025085  0.26649792     0.09400
C209        C  0.23714560  0.75195322  0.23018220    -0.54100
C210        C  0.24860214  0.76320351  0.24080268     0.10000
H211        H  0.26628518  0.71606045  0.22226329     0.14500
H212        H  0.26990714  0.76176598  0.26331194     0.00200
H213        H  0.22571498  0.71939553  0.26230050     0.14800
H214        H  0.22778038  0.75757719  0.21944781     0.14600
C215        C  0.11265540  0.63595397  0.10254104     0.86400
C216        C  0.12333034  0.64675607  0.11798954    -0.53900
C217        C  0.13387139  0.63556284  0.12970029     0.09300
C218        C  0.13212939  0.61417875  0.12529481     0.20200
C219        C  0.12802773  0.62425230  0.09258000    -0.54600
C220        C  0.13813035  0.61279279  0.10433105     0.09400
C221        C  0.10072873  0.62150089  0.11347689    -0.54100
C222        C  0.11069349  0.60991824  0.12528226     0.10000
H223        H  0.12317349  0.66194969  0.11958430     0.14500
H224        H  0.14051699  0.60486149  0.13470795     0.00200
H225        H  0.13063934  0.62489929  0.07742167     0.14800
H226        H  0.08551998  0.62053092  0.11187091     0.14600
C227        C  0.51103882  0.73877385  0.50783175     0.86400
C228        C  0.48985693  0.73424294  0.51041709    -0.53900
C229        C  0.47824626  0.74489199  0.49931454     0.09300
C230        C  0.48878341  0.75917068  0.48665757     0.20200
C231        C  0.51467140  0.73658765  0.48650214    -0.54600
C232        C  0.50314394  0.74728921  0.47542978     0.09400
C233        C  0.51227526  0.76028856  0.51146116    -0.54100
C234        C  0.50066539  0.77115387  0.50035614     0.10000
H235        H  0.48413102  0.72410821  0.52039901     0.14500
H236        H  0.47909058  0.76717027  0.47739963     0.00200
H237        H  0.52566572  0.72754013  0.48067588     0.14800
H238        H  0.52196709  0.76622059  0.52165697     0.14600
O239        O  0.26084702  0.75729935  0.45134932    -0.78600
C240        C  0.24678891  0.79401966  0.49810435     0.82400
O241        O  0.29528762  0.73157380  0.50396505    -0.79700
O242        O  0.23788178  0.74929581  0.53864962    -0.81200
O243        O  0.20772446  0.72797884  0.48006424    -0.81000
O244        O  0.24217322  0.73216431  0.44870858    -0.79600
Zn245      Zn  0.26560101  0.75982824  0.47937750     1.55700
O246        O  0.20455803  0.74832093  0.50389878    -0.81000
Cd247      Cd  0.23644595  0.72489042  0.47630081     1.59700
Cd248      Cd  0.26742762  0.72509457  0.50963653     1.59600
O249        O  0.24319915  0.69670553  0.47999399    -0.81000
O250        O  0.25072239  0.74147929  0.49381147    -1.91500
Cd251      Cd  0.23231357  0.75495522  0.51053878     1.59900
O252        O  0.26375291  0.69651319  0.50367410    -0.81000
O253        O  0.23537943  0.78383283  0.50771010    -0.79600
C254        C  0.30317394  0.74396850  0.49342784     0.82900
C255        C  0.25166653  0.74559320  0.44127743     0.82500
O256        O  0.25901361  0.78667611  0.48698754    -0.78600
C257        C  0.19741410  0.73766649  0.49128005     0.83400
O258        O  0.29352724  0.75553517  0.48353348    -0.78700
C259        C  0.25397018  0.68783126  0.49133764     0.83500
C260        C  0.25060227  0.73988133  0.54722920     0.83800
O261        O  0.26275962  0.72994726  0.53826017    -0.81100
O262        O  0.29698978  0.48865894  0.76055387    -0.78600
C263        C  0.25163848  0.50027595  0.80146747     0.82400
O264        O  0.23993734  0.45844001  0.73689585    -0.79700
O265        O  0.20965603  0.51715006  0.75797367    -0.81200
O266        O  0.26837620  0.54553833  0.73769034    -0.81000
O267        O  0.29893780  0.51012452  0.73752945    -0.79600
Zn268      Zn  0.26871364  0.48457842  0.76458003     1.55700
O269        O  0.24687181  0.54703072  0.76083503    -0.81000
Cd270      Cd  0.27118267  0.51697106  0.73208679     1.59700
Cd271      Cd  0.23687481  0.48693765  0.73200954     1.59600
O272        O  0.26618238  0.51227342  0.70355648    -0.81000
O273        O  0.25399455  0.50171383  0.74866670    -1.91500
Cd274      Cd  0.23826111  0.51918048  0.76464045     1.59900
O275        O  0.24294154  0.49109413  0.70371557    -0.81000
O276        O  0.24145475  0.51252648  0.79303656    -0.79600
C277        C  0.25091553  0.44897630  0.74751623     0.82900
C278        C  0.30676514  0.49900200  0.74933713     0.82500
O279        O  0.26246468  0.48907269  0.79227723    -0.78600
C280        C  0.25865404  0.55500189  0.74962442     0.83400
O281        O  0.26255327  0.45710681  0.75855148    -0.78700
C282        C  0.25473224  0.50149422  0.69484246     0.83500
C283        C  0.20057995  0.50654343  0.74660693     0.83800
O284        O  0.20898899  0.49438173  0.73624918    -0.81100
O285        O  0.99897507  0.75727190  0.77939053    -0.78600
C286        C  0.00873665  0.79700634  0.73253135     0.82400
O287        O  0.96255865  0.73268624  0.72786925    -0.79700
O288        O  0.01636552  0.75315974  0.68959268    -0.81200
O289        O  0.05179203  0.73254256  0.74498344    -0.81000
O290        O  0.01993319  0.73378068  0.77902494    -0.79600
Zn291      Zn  0.99229525  0.76138272  0.75159938     1.55700
O292        O  0.05194630  0.75376436  0.72166332    -0.81000
Cd293      Cd  0.02375556  0.72779690  0.75094924     1.59700
Cd294      Cd  0.99021670  0.72716972  0.72067064     1.59600
O295        O  0.01847796  0.69932163  0.74722481    -0.81000
O296        O  0.00707783  0.74419168  0.73540315    -1.91500
Cd297      Cd  0.02337821  0.75885946  0.71740201     1.59900
O298        O  0.99522847  0.69867932  0.72626525    -0.81000
O299        O  0.01917180  0.78736648  0.72139694    -0.79600
C300        C  0.95450841  0.74445072  0.73894869     0.82900
C301        C  0.00995069  0.74581776  0.78798849     0.82500
O302        O  0.99781535  0.78901514  0.74462049    -0.78600
C303        C  0.06063669  0.74311952  0.73331520     0.83400
O304        O  0.96402799  0.75625119  0.74868135    -0.78700
C305        C  0.00677405  0.69018881  0.73715498     0.83500
C306        C  0.00400699  0.74254479  0.68198876     0.83800
O307        O  0.99319636  0.73193263  0.69188065    -0.81100
C308        C  0.26699152  0.76262745  0.75324747     0.86400
C309        C  0.26898971  0.74186228  0.75956956    -0.53900
C310        C  0.25856437  0.72944773  0.74933240     0.09300
C311        C  0.24724081  0.73872565  0.73345412     0.20200
C312        C  0.27221015  0.76237506  0.73191670    -0.54600
C313        C  0.26187432  0.74968677  0.72165435     0.09400
C314        C  0.24554787  0.76653926  0.75347453    -0.54100
C315        C  0.23509268  0.75406190  0.74307636     0.10000
H316        H  0.27776781  0.73739887  0.77130483     0.14500
H317        H  0.23921262  0.72845087  0.72488666     0.00200
H318        H  0.28296561  0.77107742  0.72529894     0.14800
H319        H  0.23931801  0.77810463  0.76144130     0.14600
O320        O  0.50979272  0.73764073  0.20165648    -0.78600
C321        C  0.55344186  0.74444461  0.24561529     0.82400
O322        O  0.49037011  0.69984044  0.25563246    -0.79700
O323        O  0.51230584  0.75353954  0.29201945    -0.81200
O324        O  0.48958594  0.79056578  0.23907097    -0.81000
O325        O  0.48669965  0.75889172  0.20436989    -0.79600
Zn326      Zn  0.51616094  0.73038151  0.22886848     1.55700
O327        O  0.51325382  0.78865081  0.25957178    -0.81000
Cd328      Cd  0.48326324  0.76244338  0.23314028     1.59700
Cd329      Cd  0.48502841  0.72749008  0.26280429     1.59600
O330        O  0.45503165  0.75664312  0.23927303    -0.81000
O331        O  0.50063439  0.74484526  0.24678818    -1.91500
Cd332      Cd  0.51711250  0.75997286  0.26380210     1.59900
O333        O  0.45650004  0.73206421  0.25898817    -0.81000
O334        O  0.54510100  0.75444031  0.25810760    -0.79600
C335        C  0.50100714  0.69225305  0.24317879     0.82900
C336        C  0.49770814  0.74879118  0.19422181     0.82500
O337        O  0.54418994  0.73483277  0.23354117    -0.78600
C338        C  0.50202603  0.79838958  0.24943346     0.83400
O339        O  0.51132252  0.70221488  0.23211801    -0.78700
C340        C  0.44698641  0.74394458  0.24936907     0.83500
C341        C  0.50184075  0.74140826  0.30039381     0.83800
O342        O  0.49088498  0.73051586  0.29123776    -0.81100
C343        C  0.36257730  0.88607269  0.88739882     0.86400
C344        C  0.37614832  0.87294566  0.89818253    -0.53900
C345        C  0.38769297  0.86226031  0.88687657     0.09300
C346        C  0.38449925  0.86556070  0.86552393     0.20200
C347        C  0.37557706  0.89766783  0.87437730    -0.54600
C348        C  0.38706693  0.88714755  0.86287557     0.09400
C349        C  0.35188991  0.87283692  0.87414186    -0.54100
C350        C  0.36312612  0.86200539  0.86265002     0.10000
H351        H  0.37684141  0.87180370  0.91339977     0.14500
H352        H  0.39379703  0.85689955  0.85625601     0.00200
H353        H  0.37594801  0.91303572  0.87463570     0.14800
H354        H  0.33656999  0.87238644  0.87371112     0.14600
C355        C  0.49503686  0.99507977  0.77367668     0.86400
C356        C  0.49105866  0.99240894  0.75246159    -0.53900
C357        C  0.50259000  0.00257640  0.74059376     0.09300
C358        C  0.51728954  0.01448119  0.75123999     0.20200
C359        C  0.51614332  0.99043016  0.77590935    -0.54600
C360        C  0.52782712  0.00053415  0.76417380     0.09400
C361        C  0.49400272  0.01676579  0.77658859    -0.54100
C362        C  0.50562488  0.02687395  0.76481204     0.10000
H363        H  0.48001563  0.98310120  0.74740734     0.14500
H364        H  0.52687769  0.02292324  0.74209407     0.00200
H365        H  0.52135630  0.98006423  0.78596828     0.14800
H366        H  0.48493514  0.02389371  0.78665971     0.14600
C367        C  0.48903011  0.75610321  0.98569388     0.86400
C368        C  0.51028367  0.75947274  0.98211687    -0.53900
C369        C  0.52207178  0.74896151  0.99324910     0.09300
C370        C  0.51125741  0.73613303  0.00721035     0.20200
C371        C  0.48657624  0.73444277  0.98347550    -0.54600
C372        C  0.49835575  0.72405477  0.99474996     0.09400
C373        C  0.48611586  0.75954502  0.00704274    -0.54100
C374        C  0.49789544  0.74927133  0.01826108     0.10000
H375        H  0.51535668  0.76950913  0.97161111     0.14500
H376        H  0.52015435  0.72739297  0.01661704     0.00200
H377        H  0.47685784  0.72767792  0.97388676     0.14800
H378        H  0.47598968  0.76962439  0.01273905     0.14600
C379        C  0.73904233  0.50641812  0.50495018     0.86400
C380        C  0.73750066  0.50774823  0.48315392    -0.53900
C381        C  0.74920861  0.49565050  0.47329636     0.09300
C382        C  0.76136795  0.48336704  0.48655934     0.20200
C383        C  0.73578882  0.48534442  0.50952630    -0.54600
C384        C  0.74734472  0.47329879  0.49979361     0.09400
C385        C  0.76034265  0.50942640  0.50887353    -0.54100
C386        C  0.77197813  0.49737038  0.49919556     0.10000
H387        H  0.72803137  0.51768950  0.47638319     0.14500
H388        H  0.77093517  0.47314554  0.47961435     0.00200
H389        H  0.72504917  0.48040113  0.51941201     0.14800
H390        H  0.76611787  0.51993372  0.51827829     0.14600
O391        O  0.76559647  0.45169403  0.25434466    -0.78600
C392        C  0.80625140  0.49830286  0.24222205     0.82400
O393        O  0.74101848  0.50592226  0.28686488    -0.79700
O394        O  0.76296056  0.54093261  0.23200578    -0.81200
O395        O  0.74264480  0.48417627  0.19818343    -0.81000
O396        O  0.74339985  0.45141950  0.23219690    -0.79600
Zn397      Zn  0.77025525  0.48005565  0.25919367     1.55700
O398        O  0.76369658  0.50755154  0.19744619    -0.81000
Cd399      Cd  0.73765679  0.47925720  0.22665397     1.59700
Cd400      Cd  0.73622026  0.51124150  0.25880941     1.59600
O401        O  0.70910318  0.48283367  0.23204927    -0.81000
O402        O  0.75362482  0.49552636  0.24300783    -1.91500
Cd403      Cd  0.76858095  0.51274734  0.22605417     1.59900
O404        O  0.70799707  0.50506202  0.25423982    -0.81000
O405        O  0.79691619  0.50893549  0.23109568    -0.79600
C406        C  0.75252637  0.49557969  0.29600066     0.82900
C407        C  0.75442671  0.44272848  0.24340327     0.82500
O408        O  0.79802789  0.48659185  0.25340968    -0.78600
C409        C  0.75311036  0.49570551  0.18898881     0.83400
O410        O  0.76469231  0.48520359  0.28745471    -0.78700
C411        C  0.69977038  0.49332866  0.24339611     0.83500
C412        C  0.75198081  0.54916266  0.24378380     0.83800
O413        O  0.74088394  0.53982979  0.25459375    -0.81100
C414        C  0.74129766  0.23450550  0.24218241     0.86400
C415        C  0.76215091  0.22959648  0.23819009    -0.53900
C416        C  0.77475691  0.23982786  0.24853611     0.09300
C417        C  0.76531959  0.25417338  0.26187876     0.20200
C418        C  0.73891998  0.23233686  0.26374590    -0.54600
C419        C  0.75143134  0.24266344  0.27408421     0.09400
C420        C  0.74017665  0.25615105  0.23873453    -0.54100
C421        C  0.75288829  0.26639743  0.24902565     0.10000
H422        H  0.76647519  0.21884321  0.22809498     0.14500
H423        H  0.77546808  0.26249393  0.27030919     0.00200
H424        H  0.72797260  0.22365548  0.27020353     0.14800
H425        H  0.73070624  0.26299942  0.22893615     0.14600
O426        O  0.80034922  0.98656724  0.75404773    -0.78600
C427        C  0.75768460  0.99745849  0.79737248     0.82400
O428        O  0.74505604  0.95265410  0.73385251    -0.79700
O429        O  0.71178320  0.00873259  0.75773063    -0.81200
O430        O  0.76805904  0.04246746  0.73412687    -0.81000
O431        O  0.80022318  0.00858912  0.73153028    -0.79600
Zn432      Zn  0.77282658  0.98149206  0.76014015     1.55700
O433        O  0.74628924  0.04260774  0.75701793    -0.81000
Cd434      Cd  0.77189952  0.01406204  0.72802051     1.59700
Cd435      Cd  0.73954394  0.98113571  0.72918432     1.59600
O436        O  0.76601212  0.00894064  0.69995710    -0.81000
O437        O  0.75635555  0.99744075  0.74488449    -1.91500
Cd438      Cd  0.74038496  0.01411159  0.76131387     1.59900
O439        O  0.74419632  0.98620148  0.70059292    -0.81000
O440        O  0.74632713  0.00872925  0.78917932    -0.79600
C441        C  0.75681785  0.94434393  0.74462703     0.82900
C442        C  0.80907923  0.99740031  0.74247736     0.82500
O443        O  0.76847036  0.98637959  0.78802375    -0.78600
C444        C  0.75776367  0.05131747  0.74605600     0.83400
O445        O  0.76793651  0.95372209  0.75517154    -0.78700
C446        C  0.75517373  0.99736084  0.69150473     0.83500
C447        C  0.70280533  0.99695691  0.74750623     0.83800
O448        O  0.71136523  0.98587885  0.73604746    -0.81100
C449        C  0.76935940  0.25886770  0.76356446     0.86400
C450        C  0.77187156  0.23741684  0.76720099    -0.53900
C451        C  0.75961507  0.22628979  0.75734222     0.09300
C452        C  0.74644296  0.23748919  0.74436618     0.20200
C453        C  0.77155591  0.26081295  0.74184156    -0.54600
C454        C  0.75956698  0.24951529  0.73181751     0.09400
C455        C  0.74830624  0.26270883  0.76749650    -0.54100
C456        C  0.73630393  0.25159890  0.75738484     0.10000
H457        H  0.78204868  0.23162169  0.77706222     0.14500
H458        H  0.73669043  0.22833249  0.73631129     0.00200
H459        H  0.78205948  0.26950940  0.73480752     0.14800
H460        H  0.74340052  0.27349524  0.77729395     0.14600
O461        O  0.74325834  0.20086215  0.51759471    -0.78600
C462        C  0.75684863  0.24873246  0.55565233     0.82400
O463        O  0.70991166  0.25352868  0.49149248    -0.79700
O464        O  0.76334208  0.29048827  0.51004221    -0.81200
O465        O  0.79871105  0.23268715  0.49218686    -0.81000
O466        O  0.76573345  0.19903816  0.49548297    -0.79600
Zn467      Zn  0.73878579  0.22941044  0.52114297     1.55700
O468        O  0.79838861  0.25840891  0.51036898    -0.81000
Cd469      Cd  0.77050307  0.22679828  0.48792737     1.59700
Cd470      Cd  0.73779259  0.25864297  0.48532081     1.59600
O471        O  0.76517187  0.22908292  0.45919564    -0.81000
O472        O  0.75405037  0.24409533  0.50311815    -1.91500
Cd473      Cd  0.77024152  0.26274095  0.51664771     1.59900
O474        O  0.74287079  0.25122776  0.45748364    -0.81000
O475        O  0.76714871  0.25952710  0.54545759    -0.79600
C476        C  0.70156725  0.24430715  0.50460547     0.82900
C477        C  0.75436042  0.19111645  0.50708873     0.82500
O478        O  0.74556344  0.23676517  0.54826818    -0.78600
C479        C  0.80728535  0.24575866  0.50106408     0.83400
O480        O  0.71078645  0.23486113  0.51691876    -0.78700
C481        C  0.75395045  0.23936542  0.44958515     0.83500
C482        C  0.75179205  0.29780020  0.49836431     0.83800
O483        O  0.74148638  0.28756378  0.48781918    -0.81100
C484        C  0.89072363  0.88801252  0.35369170     0.86400
C485        C  0.90254582  0.87448855  0.36583576    -0.53900
C486        C  0.89223828  0.86209817  0.37668068     0.09300
C487        C  0.87064777  0.86460610  0.37450886     0.20200
C488        C  0.87772297  0.87503979  0.34234559    -0.54600
C489        C  0.86738981  0.86255596  0.35302270     0.09400
C490        C  0.87739692  0.89778428  0.36796014    -0.54100
C491        C  0.86696436  0.88570550  0.37898163     0.10000
H492        H  0.91787231  0.87482981  0.36581053     0.14500
H493        H  0.86216939  0.85460481  0.38321107     0.00200
H494        H  0.87715784  0.87541718  0.32699573     0.14800
H495        H  0.87578534  0.91292030  0.36934395     0.14600
C496        C  0.76199166  0.98260969  0.48422772     0.86400
C497        C  0.76655418  0.00384543  0.48186709    -0.53900
C498        C  0.75606622  0.01550264  0.49326720     0.09300
C499        C  0.74180769  0.00483193  0.50582094     0.20200
C500        C  0.76399364  0.97867627  0.50554945    -0.54600
C501        C  0.75336841  0.99018571  0.51680876     0.09400
C502        C  0.74043926  0.98142315  0.48074834    -0.54100
C503        C  0.72977267  0.99319415  0.49201315     0.10000
H504        H  0.77732797  0.00909767  0.47218805     0.14500
H505        H  0.73377337  0.01448782  0.51512885     0.00200
H506        H  0.77275888  0.96741652  0.51121429     0.14800
H507        H  0.73402580  0.97199060  0.47068344     0.14600
C508        C  0.98973035  0.75126704  0.47452723     0.86400
C509        C  0.98773435  0.75506440  0.49602422    -0.53900
C510        C  0.99968086  0.74463148  0.50692150     0.09300
C511        C  0.01239383  0.73121690  0.49557069     0.20200
C512        C  0.01092714  0.75466987  0.47044197    -0.54600
C513        C  0.02276451  0.74399947  0.48134438     0.09400
C514        C  0.98713525  0.72966990  0.47256410    -0.54100
C515        C  0.99890841  0.71913561  0.48371573     0.10000
H516        H  0.97867707  0.76563816  0.50238922     0.14500
H517        H  0.02204649  0.72284628  0.50460423     0.00200
H518        H  0.01605884  0.76453285  0.45977908     0.14800
H519        H  0.97662471  0.72336932  0.46342708     0.14600
C520        C  0.76102196  0.75575829  0.26347788     0.86400
C521        C  0.73988261  0.76034995  0.26563141    -0.53900
C522        C  0.72836665  0.74960703  0.25457273     0.09300
C523        C  0.73906751  0.73515241  0.24233734     0.20200
C524        C  0.76243772  0.73432217  0.26732288    -0.54600
C525        C  0.75078191  0.72353471  0.25641345     0.09400
C526        C  0.76498497  0.75766158  0.24195212    -0.54100
C527        C  0.75351531  0.74678425  0.23096895     0.10000
H528        H  0.73455957  0.77123791  0.27509378     0.14500
H529        H  0.72979716  0.72640771  0.23329843     0.00200
H530        H  0.77146258  0.72832923  0.27814961     0.14800
H531        H  0.77603852  0.76615924  0.23560050     0.14600
C532        C  0.26127410  0.47995065  0.48680091     0.86400
C533        C  0.26572548  0.50105301  0.48410096    -0.53900
C534        C  0.25562798  0.51276206  0.49562486     0.09300
C535        C  0.24164872  0.50232358  0.50870373     0.20200
C536        C  0.26394270  0.47623694  0.50814008    -0.54600
C537        C  0.25366177  0.48792251  0.51980306     0.09400
C538        C  0.23966336  0.47851726  0.48404009    -0.54100
C539        C  0.22939376  0.49021929  0.49557612     0.10000
H540        H  0.27637465  0.50622794  0.47422829     0.14500
H541        H  0.23308681  0.51218263  0.51732363     0.00200
H542        H  0.27347437  0.46542420  0.51332812     0.14800
H543        H  0.23276363  0.46871440  0.47463202     0.14600
O544        O  0.51529236  0.50784945  0.03851364    -0.78600
C545        C  0.55614798  0.49786392  0.99393471     0.82400
O546        O  0.48881313  0.53844060  0.98349836    -0.79700
O547        O  0.51467890  0.48308424  0.95043828    -0.81200
O548        O  0.49494293  0.45045678  0.00914139    -0.81000
O549        O  0.49352969  0.48525341  0.04052722    -0.79600
Zn550      Zn  0.51879782  0.51273967  0.01032804     1.55700
O551        O  0.51656976  0.45052551  0.98608529    -0.81000
Cd552      Cd  0.48819079  0.47879222  0.01258634     1.59700
Cd553      Cd  0.48603209  0.50978229  0.97846712     1.59600
O554        O  0.45957366  0.48234032  0.00803105    -0.81000
O555        O  0.50350526  0.49532590  0.99531308    -1.91500
Cd556      Cd  0.52001986  0.47891658  0.97911992     1.59900
O557        O  0.45800736  0.50290875  0.98414233    -0.81000
O558        O  0.54809378  0.48545988  0.98370529    -0.79600
C559        C  0.49929715  0.54805226  0.99447079     0.82900
C560        C  0.50484422  0.49681249  0.04834144     0.82500
O561        O  0.54662898  0.50924800  0.00426611    -0.78600
C562        C  0.50647669  0.44173568  0.99830039     0.83400
O563        O  0.51133418  0.54007411  0.00522693    -0.78700
C564        C  0.45002009  0.49224041  0.99641210     0.83500
C565        C  0.50357105  0.49402944  0.94137239     0.83800
O566        O  0.49202921  0.50498322  0.94997397    -0.81100
C567        C  0.49224920  0.48377177  0.25743014     0.86400
C568        C  0.48994642  0.47969775  0.23618404    -0.53900
C569        C  0.50082161  0.49085864  0.22458794     0.09300
C570        C  0.51304461  0.50516577  0.23538051     0.20200
C571        C  0.51361672  0.48209406  0.26094898    -0.54600
C572        C  0.52447634  0.49330384  0.24950210     0.09400
C573        C  0.48813379  0.50520919  0.25919552    -0.54100
C574        C  0.49887525  0.51641617  0.24753064     0.10000
H575        H  0.48049560  0.46888992  0.23085362     0.14500
H576        H  0.52190523  0.51406704  0.22592877     0.00200
H577        H  0.51961520  0.47298360  0.27175041     0.14800
H578        H  0.47800537  0.51134967  0.26888125     0.14600
C579        C  0.36330285  0.35885995  0.36241183     0.86400
C580        C  0.37670487  0.37076485  0.35009024    -0.53900
C581        C  0.38958788  0.38118274  0.35997697     0.09300
C582        C  0.38786249  0.37862680  0.38167482     0.20200
C583        C  0.37631226  0.34690137  0.37486356    -0.54600
C584        C  0.38942994  0.35700450  0.38472117     0.09400
C585        C  0.35439323  0.37313545  0.37623241    -0.54100
C586        C  0.36709770  0.38354282  0.38620136     0.10000
H587        H  0.37572839  0.37114138  0.33476908     0.14500
H588        H  0.39826581  0.38698254  0.38982192     0.00200
H589        H  0.37538607  0.33156985  0.37551630     0.14800
H590        H  0.33940041  0.37502612  0.37853950     0.14600
C591        C  0.49362603  0.26164431  0.48936220     0.86400
C592        C  0.49112751  0.24022619  0.48541303    -0.53900
C593        C  0.50238240  0.22888473  0.49615428     0.09300
C594        C  0.51491119  0.23973302  0.50998542     0.20200
C595        C  0.49013706  0.26355003  0.51079963    -0.54600
C596        C  0.50122030  0.25205104  0.52163582     0.09400
C597        C  0.51498022  0.26508712  0.48676173    -0.54100
C598        C  0.52626444  0.25374549  0.49764552     0.10000
H599        H  0.48182453  0.23414643  0.47500988     0.14500
H600        H  0.52365636  0.23038297  0.51893048     0.00200
H601        H  0.47962106  0.27303392  0.51679588     0.14800
H602        H  0.52050795  0.27556125  0.47693370     0.14600
O603        O  0.48926702  0.98889560  0.46846048    -0.78600
C604        C  0.50375377  0.94738586  0.51192573     0.82400
O605        O  0.45856948  0.01163838  0.52509379    -0.79700
O606        O  0.51514320  0.98973169  0.55567130    -0.81200
O607        O  0.54667830  0.01152506  0.49800570    -0.81000
O608        O  0.51204123  0.01054037  0.46650459    -0.79600
Zn609      Zn  0.48567324  0.98386500  0.49667213     1.55700
O610        O  0.54727339  0.99000133  0.52104309    -0.81000
Cd611      Cd  0.51807248  0.01650380  0.49429377     1.59700
Cd612      Cd  0.48699728  0.01711485  0.52841167     1.59600
O613        O  0.51258997  0.04503131  0.49850621    -0.81000
O614        O  0.50219659  0.00032783  0.51137488    -1.91500
Cd615      Cd  0.51935453  0.98468658  0.52725790     1.59900
O616        O  0.49150896  0.04546220  0.52206809    -0.81000
O617        O  0.51509387  0.95632678  0.52254764    -0.79600
C618        C  0.44952898  0.99981935  0.51501532     0.82900
C619        C  0.50025599  0.99947909  0.45868452     0.82500
O620        O  0.49189157  0.95609111  0.50152478    -0.78600
C621        C  0.55572833  0.00063706  0.50913700     0.83400
O622        O  0.45807872  0.98846045  0.50380993    -0.78700
C623        C  0.50176726  0.05403708  0.50985163     0.83500
C624        C  0.50455756  0.00102332  0.56495115     0.83800
O625        O  0.49330447  0.01239791  0.55667402    -0.81100
C626        C  0.51951091  0.00532987  0.24996930     0.86400
C627        C  0.52493056  0.98428966  0.24840889    -0.53900
C628        C  0.51473065  0.97256032  0.25997988     0.09300
C629        C  0.49988092  0.98296413  0.27208729     0.20200
C630        C  0.49805497  0.00562312  0.24619879    -0.54600
C631        C  0.48777279  0.99388919  0.25773567     0.09400
C632        C  0.52106440  0.00997708  0.27116994    -0.54100
C633        C  0.51079801  0.99836659  0.28288363     0.10000
H634        H  0.53588966  0.97914570  0.23889117     0.14500
H635        H  0.49140840  0.97347370  0.28129573     0.00200
H636        H  0.49130113  0.01389250  0.23530544     0.14800
H637        H  0.52979488  0.02144431  0.27633294     0.14600
C638        C  0.01433484  0.50224617  0.22813660     0.86400
C639        C  0.01542038  0.50567605  0.24965285    -0.53900
C640        C  0.00407925  0.49400407  0.26018086     0.09300
C641        C  0.99282538  0.47987442  0.24831893     0.20200
C642        C  0.01879742  0.48103198  0.22573631    -0.54600
C643        C  0.00762123  0.46918228  0.23635440     0.09400
C644        C  0.99295882  0.50399449  0.22381576    -0.54100
C645        C  0.98180793  0.49219437  0.23438479     0.10000
H646        H  0.02404669  0.51666845  0.25592010     0.14500
H647        H  0.98369623  0.47072299  0.25721021     0.00200
H648        H  0.02985117  0.47600676  0.21629101     0.14800
H649        H  0.98677521  0.51388401  0.21393525     0.14600
O650        O  0.04495045  0.50051273  0.49855940    -0.78600
C651        C  0.00050705  0.54220281  0.48512636     0.82400
O652        O  0.99095659  0.47953000  0.53414769    -0.79700
O653        O  0.95640611  0.49917315  0.47767285    -0.81200
O654        O  0.01265199  0.47588276  0.44477991    -0.81000
O655        O  0.04488018  0.47591171  0.47891989    -0.79600
Zn656      Zn  0.01709801  0.50638205  0.50364530     1.55700
O657        O  0.99003099  0.49773798  0.44370641    -0.81000
Cd658      Cd  0.01672536  0.47139418  0.47350103     1.59700
Cd659      Cd  0.98454896  0.47349237  0.50635436     1.59600
O660        O  0.01105892  0.44321747  0.47973899    -0.81000
O661        O  0.00104182  0.48905884  0.48916238    -1.91500
Cd662      Cd  0.98461531  0.50392900  0.47181466     1.59900
O663        O  0.98905102  0.44463103  0.50236000    -0.81000
O664        O  0.98940210  0.53250425  0.47490195    -0.79600
C665        C  0.00211975  0.49135096  0.54181964     0.82900
C666        C  0.05371529  0.48798798  0.48886445     0.82500
O667        O  0.01178451  0.53421948  0.49673567    -0.78600
C668        C  0.00166529  0.48667975  0.43544291     0.83400
O669        O  0.01242884  0.50248234  0.53189811    -0.78700
C670        C  0.99995291  0.43510358  0.49150668     0.83500
C671        C  0.94742726  0.48962310  0.49015025     0.83800
O672        O  0.95600452  0.47935939  0.50224475    -0.81100
C673        C  0.01489085  0.22737309  0.50428535     0.86400
C674        C  0.01749324  0.24911677  0.50559505    -0.53900
C675        C  0.00565302  0.25918490  0.49417500     0.09300
C676        C  0.99219440  0.24679078  0.48273152     0.20200
C677        C  0.99378296  0.22425960  0.50868112    -0.54600
C678        C  0.98186323  0.23447096  0.49745696     0.09400
C679        C  0.01702373  0.22309182  0.48297047    -0.54100
C680        C  0.00498340  0.23313110  0.47174021     0.10000
H681        H  0.02792536  0.25625191  0.51407960     0.14500
H682        H  0.98273245  0.25507346  0.47342586     0.00200
H683        H  0.98881885  0.21499323  0.51994125     0.14800
H684        H  0.02693098  0.21276088  0.47735094     0.14600
C685        C  0.26008063  0.98639501  0.99205206     0.86400
C686        C  0.23877914  0.98303568  0.98930979    -0.53900
C687        C  0.22734898  0.99363357  0.00086939     0.09300
C688        C  0.23844568  0.00652265  0.01427280     0.20200
C689        C  0.26252272  0.00801336  0.98960368    -0.54600
C690        C  0.25112368  0.01848899  0.00123818     0.09400
C691        C  0.26347802  0.98300644  0.01326391    -0.54100
C692        C  0.25204550  0.99339326  0.02485135     0.10000
H693        H  0.23336680  0.97302009  0.97907716     0.14500
H694        H  0.22969360  0.01529536  0.02390173     0.00200
H695        H  0.27206296  0.01478253  0.97968538     0.14800
H696        H  0.27389934  0.97310911  0.01863173     0.14600
O697        O  0.04384710  0.00460486  0.99474601    -0.78600
C698        C  0.00051081  0.04667764  0.98247830     0.82400
O699        O  0.98684940  0.98437995  0.02782765    -0.79700
O700        O  0.95690810  0.00563016  0.96902815    -0.81200
O701        O  0.01337208  0.98056433  0.93943315    -0.81000
O702        O  0.04415549  0.98070495  0.97425617    -0.79600
Zn703      Zn  0.01605427  0.01003236  0.99978539     1.55700
O704        O  0.99268773  0.00417494  0.93745129    -0.81000
Cd705      Cd  0.01623511  0.97636189  0.96828600     1.59700
Cd706      Cd  0.98257486  0.97922784  0.99953166     1.59600
O707        O  0.01001807  0.94852160  0.97467704    -0.81000
O708        O  0.00042842  0.99414919  0.98352415    -1.91500
Cd709      Cd  0.98558709  0.00974190  0.96538727     1.59900
O710        O  0.98669719  0.95059967  0.99588943    -0.81000
O711        O  0.99055705  0.03787334  0.97042644    -0.79600
C712        C  0.99884108  0.99436072  0.03668255     0.82900
C713        C  0.05276693  0.99251584  0.98466849     0.82500
O714        O  0.01073358  0.03788692  0.99445667    -0.78600
C715        C  0.00378359  0.99224974  0.92965646     0.83400
O716        O  0.01082232  0.00467195  0.02783543    -0.78700
C717        C  0.99812549  0.94081881  0.98591553     0.83500
C718        C  0.94717859  0.99609770  0.98092558     0.83800
O719        O  0.95490809  0.98563012  0.99336505    -0.81100
C720        C  0.99821535  0.98008490  0.24470835     0.86400
C721        C  0.99660628  0.00182767  0.24733305    -0.53900
C722        C  0.00936089  0.01212724  0.23691079     0.09300
C723        C  0.02280159  0.99969062  0.22514941     0.20200
C724        C  0.99684381  0.97727653  0.22311887    -0.54600
C725        C  0.00955435  0.98776659  0.21279922     0.09400
C726        C  0.01886956  0.97563994  0.24947157    -0.54100
C727        C  0.03176950  0.98580359  0.23929982     0.10000
H728        H  0.98652059  0.00877880  0.25649815     0.14500
H729        H  0.03346400  0.00755409  0.21673749     0.00200
H730        H  0.98609078  0.96852643  0.21665307     0.14800
H731        H  0.02289902  0.96551853  0.26030723     0.14600
C732        C  0.99967170  0.25495446  0.98270226     0.86400
C733        C  0.99697970  0.25582397  0.00440800    -0.53900
C734        C  0.00901686  0.24433190  0.01418870     0.09300
C735        C  0.02270446  0.23316723  0.00147794     0.20200
C736        C  0.02067464  0.25957381  0.97954331    -0.54600
C737        C  0.03278377  0.24819967  0.98927593     0.09400
C738        C  0.99779870  0.23372490  0.97806343    -0.54100
C739        C  0.00979379  0.22222245  0.98793576     0.10000
H740        H  0.98630165  0.26404565  0.01167838     0.14500
H741        H  0.03256270  0.22424916  0.00970630     0.00200
H742        H  0.02549853  0.27083927  0.97021005     0.14800
H743        H  0.98769850  0.22836678  0.96792195     0.14600
O744        O  0.24912643  0.20263689  0.00883748    -0.78600
C745        C  0.26030563  0.24436439  0.05218380     0.82400
O746        O  0.21645148  0.26013120  0.98927792    -0.79700
O747        O  0.27363307  0.29016107  0.01218066    -0.81200
O748        O  0.30425809  0.23563465  0.98525918    -0.81000
O749        O  0.27085300  0.20273770  0.98593120    -0.79600
Zn750      Zn  0.24414591  0.23031023  0.01458222     1.55700
O751        O  0.30576730  0.25526091  0.00984062    -0.81000
Cd752      Cd  0.27578130  0.23103852  0.98126619     1.59700
Cd753      Cd  0.24478235  0.26433372  0.98383384     1.59600
O754        O  0.26914583  0.23643334  0.95325922    -0.81000
O755        O  0.26038391  0.24655605  0.99918334    -1.91500
Cd756      Cd  0.27768150  0.26134285  0.01589069     1.59900
O757        O  0.24827946  0.25991862  0.95504661    -0.81000
O758        O  0.27235488  0.25520696  0.04416413    -0.79600
C759        C  0.20772405  0.24791505  0.99932949     0.82900
C760        C  0.25993262  0.19388225  0.99728036     0.82500
O761        O  0.24883799  0.23442881  0.04254454    -0.78600
C762        C  0.31376736  0.24510571  0.99720201     0.83400
O763        O  0.21659053  0.23582607  0.00934725    -0.78700
C764        C  0.25802557  0.24819241  0.94537232     0.83500
C765        C  0.26272636  0.29986057  0.00164197     0.83800
O766        O  0.25132248  0.29205025  0.99017276    -0.81100
O767        O  0.24791872  0.03431258  0.23829631    -0.78600
C768        C  0.26333720  0.99087900  0.19890369     0.82400
O769        O  0.21408290  0.98115820  0.26184610    -0.79700
O770        O  0.26920149  0.94602454  0.24046901    -0.81200
O771        O  0.30272690  0.00382968  0.26326310    -0.81000
O772        O  0.26892798  0.03668440  0.26133709    -0.79600
Zn773      Zn  0.24391770  0.00649218  0.23409772     1.55700
O774        O  0.30450741  0.97903546  0.24389336    -0.81000
Cd775      Cd  0.27422731  0.00849122  0.26746599     1.59700
Cd776      Cd  0.24209572  0.97553131  0.26763355     1.59600
O777        O  0.26810822  0.00375733  0.29568642    -0.81000
O778        O  0.25900292  0.99134682  0.25125986    -1.91500
Cd779      Cd  0.27645052  0.97431672  0.23675080     1.59900
O780        O  0.24657562  0.98075040  0.29611862    -0.81000
O781        O  0.27415639  0.97994360  0.20822679    -0.79600
C782        C  0.20635507  0.99127055  0.24911496     0.82900
C783        C  0.25805581  0.04430061  0.24921090     0.82500
O784        O  0.25115266  0.00136302  0.20708914    -0.78600
C785        C  0.31237459  0.99173700  0.25394412     0.83400
O786        O  0.21616506  0.00116281  0.23758297    -0.78700
C787        C  0.25716998  0.99249746  0.30467265     0.83500
C788        C  0.25681169  0.93779720  0.25080086     0.83800
O789        O  0.24606321  0.94706192  0.26200247    -0.81100
O790        O  0.01385804  0.23103715  0.19807260    -0.78600
C791        C  0.05688541  0.24043020  0.24054417     0.82400
O792        O  0.99301281  0.19614688  0.25338999    -0.79700
O793        O  0.01679392  0.25179930  0.28692477    -0.81200
O794        O  0.99079061  0.28428703  0.23239170    -0.81000
O795        O  0.98993155  0.25143782  0.19912412    -0.79600
Zn796      Zn  0.01946202  0.22473387  0.22551278     1.55700
O797        O  0.01492571  0.28525846  0.25244917    -0.81000
Cd798      Cd  0.98594017  0.25593578  0.22764074     1.59700
Cd799      Cd  0.98875057  0.22406818  0.26002543     1.59600
O800        O  0.95789021  0.25003296  0.23408161    -0.81000
O801        O  0.00398713  0.24022681  0.24255537    -1.91500
Cd802      Cd  0.02050337  0.25697460  0.25811488     1.59900
O803        O  0.96010209  0.22892987  0.25735752    -0.81000
O804        O  0.04864062  0.25189651  0.25181056    -0.79600
C805        C  0.00296146  0.18769843  0.24091853     0.82900
C806        C  0.00173971  0.24147851  0.18979184     0.82500
O807        O  0.04749307  0.22929969  0.22996554    -0.78600
C808        C  0.00273850  0.29353276  0.24209883     0.83400
O809        O  0.01365975  0.19679870  0.22947356    -0.78700
C810        C  0.95022291  0.23916536  0.24634383     0.83500
C811        C  0.00689919  0.23985586  0.29626846     0.83800
O812        O  0.99587832  0.22829376  0.28803197    -0.81100
C813        C  0.26437566  0.25251838  0.26169123     0.86400
C814        C  0.26907713  0.25581166  0.24068228    -0.53900
C815        C  0.25872855  0.24513045  0.22845687     0.09300
C816        C  0.24445033  0.23196729  0.23853404     0.20200
C817        C  0.24284826  0.25598768  0.26310593    -0.54600
C818        C  0.23242366  0.24520033  0.25098921     0.09400
C819        C  0.26651157  0.23108768  0.26467272    -0.54100
C820        C  0.25608199  0.22020724  0.25267257     0.10000
H821        H  0.27986420  0.26571108  0.23597739     0.14500
H822        H  0.23581301  0.22348014  0.22869130     0.00200
H823        H  0.23608366  0.26567587  0.27283400     0.14800
H824        H  0.27571040  0.22513521  0.27536882     0.14600
C825        C  0.64090392  0.10702335  0.11531802     0.86400
C826        C  0.62890500  0.09524937  0.12905920    -0.53900
C827        C  0.61793826  0.10559735  0.14124077     0.09300
C828        C  0.61996783  0.12724490  0.13837190     0.20200
C829        C  0.62682559  0.12005960  0.10535541    -0.54600
C830        C  0.61562031  0.13053612  0.11719040     0.09400
C831        C  0.65217855  0.12048850  0.12803422    -0.54100
C832        C  0.64141140  0.13098866  0.14027651     0.10000
H833        H  0.62889105  0.07988313  0.12880171     0.14500
H834        H  0.61108225  0.13570629  0.14819131     0.00200
H835        H  0.62593522  0.12094711  0.09004538     0.14800
H836        H  0.66730227  0.12233097  0.12718532     0.14600
C837        C  0.64456036  0.64011787  0.63130289     0.86400
C838        C  0.63223017  0.65172130  0.61773099    -0.53900
C839        C  0.62065953  0.64112658  0.60648612     0.09300
C840        C  0.62268555  0.61953289  0.60970584     0.20200
C841        C  0.63059208  0.62758048  0.64219185    -0.54600
C842        C  0.61905041  0.61690880  0.63113197     0.09400
C843        C  0.65528309  0.62639693  0.61815719    -0.54100
C844        C  0.64401776  0.61575529  0.60670134     0.10000
H845        H  0.63232165  0.66709060  0.61744891     0.14500
H846        H  0.61341974  0.61084261  0.60057804     0.00200
H847        H  0.62949466  0.62760409  0.65753866     0.14800
H848        H  0.67048580  0.62546942  0.61701668     0.14600
C849        C  0.07787617  0.24000775  0.23994691    -0.03300
C850        C  0.08764311  0.22809417  0.22731803    -0.05900
C851        C  0.10741672  0.22741058  0.22725399    -0.21000
C852        C  0.11792896  0.23864267  0.23972593     0.24700
C853        C  0.10812138  0.25058500  0.25235503    -0.18600
C854        C  0.08838819  0.25131792  0.25236817    -0.08500
C855        C  0.13894186  0.23684884  0.23969806    -0.18800
C856        C  0.15059935  0.24976941  0.24741089    -0.23600
C857        C  0.17157139  0.24799690  0.24787806     0.26800
C858        C  0.18228615  0.26432217  0.25136178    -0.20400
C859        C  0.20196755  0.26343135  0.25238652    -0.10000
C860        C  0.21145658  0.24612941  0.25002719    -0.10600
C861        C  0.20079549  0.22971543  0.24671549    -0.03500
C862        C  0.18106114  0.23059025  0.24572762    -0.18600
H863        H  0.08001561  0.21918076  0.21755951     0.10500
H864        H  0.11453464  0.21798773  0.21745389     0.10500
H865        H  0.11547667  0.25906638  0.26263872     0.10200
H866        H  0.08135699  0.26056573  0.26238751     0.11300
H867        H  0.14491831  0.22464954  0.23254188     0.11400
H868        H  0.14470664  0.26273319  0.25312405     0.13300
H869        H  0.17539536  0.27789358  0.25320713     0.09800
H870        H  0.20977009  0.27636879  0.25476650     0.11900
H871        H  0.20767363  0.21609791  0.24528052     0.08500
H872        H  0.17338062  0.21754986  0.24367668     0.11300
C873        C  0.25712941  0.06519570  0.24767134    -0.03300
C874        C  0.24555929  0.07381216  0.23405081    -0.05900
C875        C  0.24451895  0.09350515  0.23265287    -0.21000
C876        C  0.25487140  0.10505322  0.24490325     0.24700
C877        C  0.26679094  0.09645347  0.25827006    -0.18600
C878        C  0.26783540  0.07674264  0.25967235    -0.08500
C879        C  0.25326813  0.12592855  0.24289446    -0.18800
C880        C  0.25719497  0.13809469  0.25698731    -0.23600
C881        C  0.25605177  0.15908241  0.25534970     0.26800
C882        C  0.25859890  0.16992056  0.27175409    -0.20400
C883        C  0.25843328  0.18967857  0.27095420    -0.10000
C884        C  0.25572647  0.19914564  0.25366709    -0.10600
C885        C  0.25279144  0.18831268  0.23733899    -0.03500
C886        C  0.25309519  0.16856167  0.23807660    -0.18600
H887        H  0.23725019  0.06534650  0.22445548     0.10500
H888        H  0.23543482  0.09974583  0.22206448     0.10500
H889        H  0.27558489  0.10480704  0.26748131     0.10200
H890        H  0.27708114  0.07055849  0.27014047     0.11300
H891        H  0.24795317  0.13113915  0.22953861     0.11400
H892        H  0.26115259  0.13247858  0.27069331     0.13300
H893        H  0.26082944  0.16307329  0.28528600     0.09800
H894        H  0.26027449  0.19749419  0.28395618     0.11900
H895        H  0.25067868  0.19496396  0.22381477     0.08500
H896        H  0.25133406  0.16101645  0.22495119     0.11300
C897        C  0.25962358  0.24327049  0.07318118    -0.03300
C898        C  0.24688487  0.23103901  0.08241798    -0.05900
C899        C  0.24630356  0.22995787  0.10217594    -0.21000
C900        C  0.25833368  0.24111577  0.11324459     0.24700
C901        C  0.27121417  0.25326334  0.10400073    -0.18600
C902        C  0.27178070  0.25435717  0.08422358    -0.08500
C903        C  0.25726465  0.23913118  0.13424022    -0.18800
C904        C  0.26486250  0.25148874  0.14657570    -0.23600
C905        C  0.26347139  0.24935568  0.16753673     0.26800
C906        C  0.26661117  0.26524898  0.17899180    -0.20400
C907        C  0.26522626  0.26391180  0.19872101    -0.10000
C908        C  0.26072911  0.24658031  0.20748791    -0.10600
C909        C  0.25799179  0.23063844  0.19603899    -0.03500
C910        C  0.25947227  0.23191862  0.17635526    -0.18600
H911        H  0.23736189  0.22223077  0.07438693     0.10500
H912        H  0.23634603  0.22035571  0.10884855     0.10500
H913        H  0.28113594  0.26173828  0.11183162     0.10200
H914        H  0.28185898  0.26384040  0.07758163     0.11300
H915        H  0.24914195  0.22725845  0.13962862     0.11400
H916        H  0.27167082  0.26420407  0.14130738     0.13300
H917        H  0.26989654  0.27883481  0.17264179     0.09800
H918        H  0.26728463  0.27656495  0.20705459     0.11900
H919        H  0.25499184  0.21702573  0.20221198     0.08500
H920        H  0.25772720  0.21910445  0.16824109     0.11300
C921        C  0.00844963  0.24216159  0.03507291    -0.03300
C922        C  0.01192805  0.22444424  0.04340509    -0.05900
C923        C  0.01182620  0.22238825  0.06307072    -0.21000
C924        C  0.00810558  0.23793723  0.07483379     0.24700
C925        C  0.00465796  0.25571440  0.06646860    -0.18600
C926        C  0.00472756  0.25775298  0.04679412    -0.08500
C927        C  0.00868288  0.23520525  0.09568351    -0.18800
C928        C  0.99990262  0.24682092  0.10800531    -0.23600
C929        C  0.00055161  0.24449639  0.12889554     0.26800
C930        C  0.98679505  0.25370564  0.13988998    -0.20400
C931        C  0.98711546  0.25256764  0.15959845    -0.10000
C932        C  0.00129838  0.24222895  0.16884160    -0.10600
C933        C  0.01511572  0.23297758  0.15787213    -0.03500
C934        C  0.01481655  0.23415467  0.13810397    -0.18600
H935        H  0.01453349  0.21208826  0.03473644     0.10500
H936        H  0.01459007  0.20856734  0.06912144     0.10500
H937        H  0.00238910  0.26821189  0.07498351     0.10200
H938        H  0.00234212  0.27164561  0.04076537     0.11300
H939        H  0.01598205  0.22275680  0.10088098     0.11400
H940        H  0.99117691  0.25823194  0.10264412     0.13300
H941        H  0.97573502  0.26187006  0.13319683     0.09800
H942        H  0.97625040  0.25988567  0.16759044     0.11900
H943        H  0.02633228  0.22504524  0.16456245     0.08500
H944        H  0.02602801  0.22731602  0.13021960     0.11300
C945        C  0.05365810  0.25039999  0.98848114    -0.03300
C946        C  0.06204665  0.26840518  0.98750984    -0.05900
C947        C  0.08173075  0.27029066  0.98751126    -0.21000
C948        C  0.09341532  0.25425674  0.98856488     0.24700
C949        C  0.08498126  0.23624317  0.98884377    -0.18600
C950        C  0.06537104  0.23440650  0.98891988    -0.08500
C951        C  0.11426208  0.25678598  0.98903247    -0.18800
C952        C  0.12604962  0.24371658  0.99634609    -0.23600
C953        C  0.14693239  0.24578392  0.99722677     0.26800
C954        C  0.15702846  0.23342136  0.00900708    -0.20400
C955        C  0.17670402  0.23430151  0.00994342    -0.10000
C956        C  0.18680038  0.24755339  0.99902399    -0.10600
C957        C  0.17672580  0.26000431  0.98725974    -0.03500
C958        C  0.15703014  0.25909600  0.98628953    -0.18600
H959        H  0.05341026  0.28104871  0.98719019     0.10500
H960        H  0.08784413  0.28433474  0.98703341     0.10500
H961        H  0.09339925  0.22347118  0.98873518     0.10200
H962        H  0.05945427  0.22039387  0.98898672     0.11300
H963        H  0.11979134  0.27023344  0.98408908     0.11400
H964        H  0.12015224  0.23104770  0.00276202     0.13300
H965        H  0.14965821  0.22294370  0.01749476     0.09800
H966        H  0.18400519  0.22445300  0.01909682     0.11900
H967        H  0.18407851  0.27028063  0.97852345     0.08500
H968        H  0.14995247  0.26856403  0.97663175     0.11300
C969        C  0.00176920  0.16680182  0.23983232    -0.03300
C970        C  0.98998240  0.15688982  0.25251132    -0.05900
C971        C  0.98867309  0.13723126  0.25176644    -0.21000
C972        C  0.99915973  0.12691127  0.23843890     0.24700
C973        C  0.01070179  0.13679422  0.22542103    -0.18600
C974        C  0.01202316  0.15655812  0.22616920    -0.08500
C975        C  0.99742783  0.10595621  0.23869228    -0.18800
C976        C  0.01043671  0.09421159  0.23123295    -0.23600
C977        C  0.00944903  0.07325477  0.23290782     0.26800
C978        C  0.02607166  0.06286992  0.23013328    -0.20400
C979        C  0.02602028  0.04318816  0.23153013    -0.10000
C980        C  0.00936570  0.03325229  0.23591907    -0.10600
C981        C  0.99257638  0.04365184  0.23842268    -0.03500
C982        C  0.99257475  0.06340746  0.23684926    -0.18600
H983        H  0.98174579  0.16430774  0.26312654     0.10500
H984        H  0.97956008  0.13002780  0.26184043     0.10500
H985        H  0.01855138  0.12944338  0.21450882     0.10200
H986        H  0.02102032  0.16380008  0.21603025     0.11300
H987        H  0.98560770  0.10009898  0.24659147     0.11400
H988        H  0.02305877  0.10008580  0.22471740     0.13300
H989        H  0.03923867  0.07002532  0.22689700     0.09800
H990        H  0.03916715  0.03596759  0.22912924     0.11900
H991        H  0.97928367  0.03655094  0.24108057     0.08500
H992        H  0.97925874  0.07075098  0.23835563     0.11300
C993        C  0.05246239  0.98409840  0.24217451    -0.03300
C994        C  0.06094815  0.96647414  0.24577706    -0.05900
C995        C  0.08051725  0.96513002  0.24823094    -0.21000
C996        C  0.09194473  0.98133448  0.24702421     0.24700
C997        C  0.08331415  0.99900001  0.24404618    -0.18600
C998        C  0.06385818  0.00029080  0.24158332    -0.08500
C999        C  0.11270036  0.97955075  0.24939699    -0.18800
C1000       C  0.12496147  0.99204643  0.24173765    -0.23600
C1001       C  0.14578183  0.99117259  0.24396792     0.26800
C1002       C  0.15706853  0.00196148  0.23160766    -0.20400
C1003       C  0.17668689  0.00206309  0.23332808    -0.10000
C1004       C  0.18551221  0.99140520  0.24754831    -0.10600
C1005       C  0.17422942  0.98074754  0.26009145    -0.03500
C1006       C  0.15456696  0.98066022  0.25837560    -0.18600
H1007       H  0.05251078  0.95371074  0.24639248     0.10500
H1008       H  0.08677647  0.95137831  0.25079700     0.10500
H1009       H  0.09144045  0.01195689  0.24397553     0.10200
H1010       H  0.05774419  0.01408765  0.23971902     0.11300
H1011       H  0.11788151  0.96722611  0.25691847     0.11400
H1012       H  0.11959735  0.00326880  0.23274374     0.13300
H1013       H  0.15067797  0.01033913  0.22050443     0.09800
H1014       H  0.18493053  0.01047687  0.22345986     0.11900
H1015       H  0.18058139  0.97249626  0.27129954     0.08500
H1016       H  0.14640395  0.97260951  0.26856256     0.11300
C1017       C  0.00948745  0.20115070  0.98695060    -0.03300
C1018       C  0.02593105  0.19071897  0.99063227    -0.05900
C1019       C  0.02563921  0.17101655  0.99099531    -0.21000
C1020       C  0.00889167  0.16108693  0.98771462     0.24700
C1021       C  0.99229759  0.17140790  0.98395329    -0.18600
C1022       C  0.99263908  0.19123808  0.98349935    -0.08500
C1023       C  0.00948806  0.14009921  0.98902225    -0.18800
C1024       C  0.99626762  0.12856820  0.98184374    -0.23600
C1025       C  0.99776653  0.10759764  0.98250556     0.26800
C1026       C  0.98799593  0.09703277  0.96899364    -0.20400
C1027       C  0.98906513  0.07731568  0.96892446    -0.10000
C1028       C  0.99984849  0.06763694  0.98250304    -0.10600
C1029       C  0.00948318  0.07817348  0.99621182    -0.03500
C1030       C  0.00839353  0.09795013  0.99628725    -0.18600
H1031       H  0.03914735  0.19762114  0.99334621     0.10500
H1032       H  0.03861980  0.16348665  0.99397135     0.10500
H1033       H  0.97893230  0.16437078  0.98187199     0.10200
H1034       H  0.97955962  0.19876682  0.98109737     0.11300
H1035       H  0.02199887  0.13393730  0.99531773     0.11400
H1036       H  0.98452020  0.13452924  0.97408326     0.13300
H1037       H  0.97961161  0.10407503  0.95832109     0.09800
H1038       H  0.98137512  0.06966207  0.95819822     0.11900
H1039       H  0.01770877  0.07114268  0.00700496     0.08500
H1040       H  0.01562194  0.10552404  0.00735535     0.11300
C1041       C  0.99895335  0.99339550  0.05770592    -0.03300
C1042       C  0.98509652  0.98280936  0.06738751    -0.05900
C1043       C  0.98565133  0.98075602  0.08703604    -0.21000
C1044       C  0.99998174  0.98926345  0.09764077     0.24700
C1045       C  0.01382924  0.00002613  0.08800859    -0.18600
C1046       C  0.01324839  0.00211855  0.06827068    -0.08500
C1047       C  0.00008406  0.98596900  0.11852001    -0.18800
C1048       C  0.00994271  0.99646616  0.13089678    -0.23600
C1049       C  0.00928717  0.99356262  0.15180700     0.26800
C1050       C  0.01438543  0.00871571  0.16346211    -0.20400
C1051       C  0.01422573  0.00679793  0.18312602    -0.10000
C1052       C  0.00927729  0.98951809  0.19175141    -0.10600
C1053       C  0.00409523  0.97428026  0.18014213    -0.03500
C1054       C  0.00415955  0.97623491  0.16036934    -0.18600
H1055       H  0.97386692  0.97586300  0.05975827     0.10500
H1056       H  0.97482844  0.97236006  0.09398442     0.10500
H1057       H  0.02540671  0.00648730  0.09547238     0.10200
H1058       H  0.02423414  0.01022612  0.06125227     0.11300
H1059       H  0.99083986  0.97493587  0.12391340     0.11400
H1060       H  0.01804062  0.00846668  0.12576298     0.13300
H1061       H  0.01832977  0.02222754  0.15732466     0.09800
H1062       H  0.01771676  0.01906463  0.19153317     0.11900
H1063       H  0.00035681  0.96074007  0.18631138     0.08500
H1064       H  0.00059031  0.96403098  0.15192513     0.11300
C1065       C  0.25078306  0.03947130  0.00126370    -0.03300
C1066       C  0.23365903  0.04914686  0.00395485    -0.05900
C1067       C  0.23325272  0.06889942  0.00446622    -0.21000
C1068       C  0.24991439  0.07941869  0.00220022     0.24700
C1069       C  0.26711905  0.06970385  0.99961976    -0.18600
C1070       C  0.26750545  0.04992911  0.99905385    -0.08500
C1071       C  0.24879053  0.10039588  0.00321283    -0.18800
C1072       C  0.26193236  0.11197041  0.99565039    -0.23600
C1073       C  0.26068849  0.13293939  0.99632680     0.26800
C1074       C  0.27080500  0.14345447  0.98280559    -0.20400
C1075       C  0.27041281  0.16319680  0.98305295    -0.10000
C1076       C  0.25996126  0.17292687  0.99694966    -0.10600
C1077       C  0.24986575  0.16242953  0.01057532    -0.03500
C1078       C  0.25028031  0.14263128  0.01033616    -0.18600
H1079       H  0.22050913  0.04145971  0.00546361     0.10500
H1080       H  0.21983583  0.07599991  0.00654325     0.10500
H1081       H  0.28037535  0.07721313  0.99847856     0.10200
H1082       H  0.28095491  0.04281119  0.99735618     0.11300
H1083       H  0.23617361  0.10642231  0.00959640     0.11400
H1084       H  0.27365586  0.10597679  0.98771289     0.13300
H1085       H  0.27902052  0.13635659  0.97194420     0.09800
H1086       H  0.27835698  0.17082965  0.97233680     0.11900
H1087       H  0.24183852  0.16950465  0.02158075     0.08500
H1088       H  0.24276936  0.13505824  0.02136989     0.11300
C1089       C  0.20632017  0.99343071  0.00007041    -0.03300
C1090       C  0.19546263  0.99833144  0.01605030    -0.05900
C1091       C  0.17582136  0.99883353  0.01525886    -0.21000
C1092       C  0.16640150  0.99461612  0.99844579     0.24700
C1093       C  0.17718132  0.98984630  0.98230425    -0.18600
C1094       C  0.19689987  0.98917581  0.98316483    -0.08500
C1095       C  0.14546394  0.99607077  0.99842248    -0.18800
C1096       C  0.13442378  0.98927273  0.98461550    -0.23600
C1097       C  0.11350817  0.99058281  0.98509429     0.26800
C1098       C  0.10314613  0.97771282  0.97428120    -0.20400
C1099       C  0.08346914  0.97834488  0.97422300    -0.10000
C1100       C  0.07365386  0.99199677  0.98490616    -0.10600
C1101       C  0.08400233  0.00507752  0.99557210    -0.03500
C1102       C  0.10373993  0.00445492  0.99560870    -0.18600
H1103       H  0.20193179  0.00186777  0.02929647     0.10500
H1104       H  0.16794490  0.00267598  0.02788388     0.10500
H1105       H  0.17064940  0.98705730  0.96884102     0.10200
H1106       H  0.20472903  0.98589752  0.97038104     0.11300
H1107       H  0.13889863  0.00241985  0.01079156     0.11400
H1108       H  0.14067690  0.98152508  0.97293143     0.13300
H1109       H  0.11030501  0.96700568  0.96593929     0.09800
H1110       H  0.07595857  0.96808152  0.96577766     0.11900
H1111       H  0.07686675  0.01588594  0.00378652     0.08500
H1112       H  0.11120016  0.01506610  0.00361536     0.11300
C1113       C  0.26490887  0.99134496  0.17806059    -0.03300
C1114       C  0.27640701  0.97821273  0.16849653    -0.05900
C1115       C  0.27752050  0.97831044  0.14878087    -0.21000
C1116       C  0.26707176  0.99139930  0.13824170     0.24700
C1117       C  0.25597281  0.00491674  0.14778110    -0.18600
C1118       C  0.25485761  0.00483585  0.16750804    -0.08500
C1119       C  0.26810872  0.99058296  0.11735211    -0.18800
C1120       C  0.25354793  0.99563151  0.10636248    -0.23600
C1121       C  0.25386298  0.99399857  0.08548756     0.26800
C1122       C  0.23659675  0.99274330  0.07604044    -0.20400
C1123       C  0.23612667  0.99191370  0.05636073    -0.10000
C1124       C  0.25287164  0.99256982  0.04570671    -0.10600
C1125       C  0.27022963  0.99345421  0.05507282    -0.03500
C1126       C  0.27074965  0.99427048  0.07482463    -0.18600
H1127       H  0.28438752  0.96769271  0.17622509     0.10500
H1128       H  0.28628326  0.96788181  0.14171699     0.10500
H1129       H  0.24825473  0.01563934  0.14007851     0.10200
H1130       H  0.24611779  0.01533774  0.17448083     0.11300
H1131       H  0.28062310  0.98427704  0.11103766     0.11400
H1132       H  0.24038026  0.00011316  0.11294396     0.13300
H1133       H  0.22341316  0.99239971  0.08391728     0.09800
H1134       H  0.22265692  0.99063619  0.04950543     0.11900
H1135       H  0.28332930  0.99417538  0.04709517     0.08500
H1136       H  0.28432050  0.99570801  0.08157481     0.11300
C1137       C  0.00827125  0.23927989  0.31722818    -0.03300
C1138       C  0.02096448  0.25109796  0.32680753    -0.05900
C1139       C  0.02239158  0.25031688  0.34653309    -0.21000
C1140       C  0.01107288  0.23786133  0.35717870     0.24700
C1141       C  0.99846068  0.22591988  0.34759425    -0.18600
C1142       C  0.99705722  0.22667050  0.32787706    -0.08500
C1143       C  0.01327398  0.23730369  0.37811177    -0.18800
C1144       C  0.99972923  0.23100331  0.39005577    -0.23600
C1145       C  0.00168952  0.23088813  0.41099091     0.26800
C1146       C  0.98526150  0.23151157  0.42219076    -0.20400
C1147       C  0.98639935  0.23183911  0.44190157    -0.10000
C1148       C  0.00400410  0.23127461  0.45087694    -0.10600
C1149       C  0.02046368  0.22992162  0.43976942    -0.03500
C1150       C  0.01934327  0.22977362  0.41998754    -0.18600
H1151       H  0.02989109  0.26090401  0.31906418     0.10500
H1152       H  0.03233895  0.25955367  0.35351883     0.10500
H1153       H  0.98991505  0.21568149  0.35515994     0.10200
H1154       H  0.98724530  0.21724035  0.32096917     0.11300
H1155       H  0.02616069  0.24319709  0.38385426     0.11400
H1156       H  0.98614000  0.22681676  0.38445778     0.13300
H1157       H  0.97148512  0.23208025  0.41565553     0.09800
H1158       H  0.97346101  0.23253700  0.45014364     0.11900
H1159       H  0.03420588  0.22947142  0.44636569     0.08500
H1160       H  0.03228858  0.22866463  0.41184547     0.11300
C1161       C  0.99988987  0.41407591  0.49276582    -0.03300
C1162       C  0.98734543  0.40467141  0.50510437    -0.05900
C1163       C  0.98763751  0.38493144  0.50670626    -0.21000
C1164       C  0.00034231  0.37405039  0.49594515     0.24700
C1165       C  0.01294277  0.38341444  0.48358809    -0.18600
C1166       C  0.01267580  0.40318598  0.48200098    -0.08500
C1167       C  0.00048647  0.35312545  0.49863265    -0.18800
C1168       C  0.00698468  0.34081646  0.48557223    -0.23600
C1169       C  0.00657199  0.31992390  0.48831699     0.26800
C1170       C  0.00532122  0.30820850  0.47236854    -0.20400
C1171       C  0.00489303  0.28851669  0.47434602    -0.10000
C1172       C  0.00614519  0.28009975  0.49230213    -0.10600
C1173       C  0.00776490  0.29173736  0.50827882    -0.03500
C1174       C  0.00790736  0.31147330  0.50633393    -0.18600
H1175       H  0.97734263  0.41256823  0.51364997     0.10500
H1176       H  0.97786055  0.37811766  0.51641728     0.10500
H1177       H  0.02332702  0.37561710  0.47544974     0.10200
H1178       H  0.02267783  0.40995246  0.47250056     0.11300
H1179       H  0.99407619  0.34765634  0.51153455     0.11400
H1180       H  0.01173264  0.34605664  0.47189616     0.13300
H1181       H  0.00448576  0.31432704  0.45833058     0.09800
H1182       H  0.00389204  0.27984419  0.46177791     0.11900
H1183       H  0.00871309  0.28556549  0.52228061     0.08500
H1184       H  0.00939378  0.32002765  0.51890834     0.11300
C1185       C  0.00195511  0.49512603  0.28103719    -0.03300
C1186       C  0.98410458  0.49246400  0.28943179    -0.05900
C1187       C  0.98200800  0.49236261  0.30908597    -0.21000
C1188       C  0.99772126  0.49470479  0.32078290     0.24700
C1189       C  0.01554649  0.49791272  0.31239680    -0.18600
C1190       C  0.01762094  0.49815776  0.29268146    -0.08500
C1191       C  0.99490375  0.49420541  0.34161535    -0.18800
C1192       C  0.00838895  0.48846257  0.35366346    -0.23600
C1193       C  0.00568712  0.48771466  0.37452476     0.26800
C1194       C  0.01706924  0.47546577  0.38515292    -0.20400
C1195       C  0.01553785  0.47486301  0.40487787    -0.10000
C1196       C  0.00266881  0.48665873  0.41446133    -0.10600
C1197       C  0.99122883  0.49892243  0.40380758    -0.03500
C1198       C  0.99273085  0.49948219  0.38406944    -0.18600
H1199       H  0.97168942  0.49055212  0.28079751     0.10500
H1200       H  0.96809433  0.49017203  0.31518163     0.10500
H1201       H  0.02786757  0.50038507  0.32099809     0.10200
H1202       H  0.03152100  0.50029277  0.28655518     0.11300
H1203       H  0.98091839  0.49759621  0.34701269     0.11400
H1204       H  0.02171922  0.48327020  0.34802343     0.13300
H1205       H  0.02724069  0.46634751  0.37816001     0.09800
H1206       H  0.02461275  0.46529890  0.41262333     0.11900
H1207       H  0.98129243  0.50833602  0.41073186     0.08500
H1208       H  0.98409628  0.50951528  0.37644075     0.11300
C1209       C  0.00966074  0.44809612  0.23671938    -0.03300
C1210       C  0.02693966  0.43923072  0.23220823    -0.05900
C1211       C  0.02868964  0.41948161  0.23300329    -0.21000
C1212       C  0.01323084  0.40813863  0.23820479     0.24700
C1213       C  0.99611370  0.41697893  0.24306836    -0.18600
C1214       C  0.99434089  0.43660058  0.24219198    -0.08500
C1215       C  0.01543703  0.38722553  0.23903994    -0.18800
C1216       C  0.00074389  0.37531021  0.23695769    -0.23600
C1217       C  0.00208418  0.35436886  0.23823128     0.26800
C1218       C  0.98727701  0.34356358  0.23082381    -0.20400
C1219       C  0.98749716  0.32385976  0.23212311    -0.10000
C1220       C  0.00248122  0.31446064  0.24106399    -0.10600
C1221       C  0.01725058  0.32524446  0.24868002    -0.03500
C1222       C  0.01707178  0.34500687  0.24729705    -0.18600
H1223       H  0.03925364  0.44748325  0.22839064     0.10500
H1224       H  0.04214600  0.41304012  0.22948738     0.10500
H1225       H  0.98405007  0.40885905  0.24788099     0.10200
H1226       H  0.98077852  0.44251593  0.24580366     0.11300
H1227       H  0.02960034  0.38164210  0.24068146     0.11400
H1228       H  0.98698731  0.38107691  0.23349273     0.13300
H1229       H  0.97546507  0.35040121  0.22394872     0.09800
H1230       H  0.97584691  0.31599920  0.22617862     0.11900
H1231       H  0.02898251  0.31841567  0.25568127     0.08500
H1232       H  0.02849454  0.35280896  0.25366558     0.11300
C1233       C  0.53217550  0.01804842  0.23766652    -0.03300
C1234       C  0.55168680  0.01843337  0.24132341    -0.05900
C1235       C  0.56392125  0.02981638  0.23063814    -0.21000
C1236       C  0.55710694  0.04120742  0.21589265     0.24700
C1237       C  0.53766941  0.04073962  0.21196501    -0.18600
C1238       C  0.52538618  0.02939897  0.22271185    -0.08500
C1239       C  0.57092848  0.05249619  0.20448240    -0.18800
C1240       C  0.56625845  0.06662714  0.19246446    -0.23600
C1241       C  0.58027809  0.07698511  0.18040284     0.26800
C1242       C  0.57525443  0.09453892  0.17244673    -0.20400
C1243       C  0.58764814  0.10417589  0.16019866    -0.42000
C1244       C  0.60528920  0.09635234  0.15547950    -0.10600
C1245       C  0.61043385  0.07895253  0.16368823    -0.03500
C1246       C  0.59808861  0.06933082  0.17584910    -0.18600
H1247       H  0.55749868  0.00983364  0.25257520     0.10500
H1248       H  0.57883910  0.02966846  0.23390917     0.10500
H1249       H  0.53181235  0.04877094  0.20037645     0.10200
H1250       H  0.51071856  0.02963203  0.21885168     0.11300
H1251       H  0.58571155  0.04912895  0.20651597     0.11400
H1252       H  0.55167072  0.07116467  0.19153780     0.13300
H1253       H  0.56157638  0.10071760  0.17553541     0.09800
H1254       H  0.58314072  0.11741163  0.15394145     0.11900
H1255       H  0.62401350  0.07259626  0.16057352     0.08500
H1256       H  0.60245683  0.05566120  0.18113199     0.11300
C1257       C  0.46691917  0.99174498  0.25631852    -0.03300
C1258       C  0.45830502  0.97421590  0.26007950    -0.05900
C1259       C  0.43871562  0.97217635  0.25879740    -0.21000
C1260       C  0.42726386  0.98760600  0.25385156     0.24700
C1261       C  0.43591356  0.00509252  0.24974605    -0.18600
C1262       C  0.45549308  0.00713967  0.25106847    -0.08500
C1263       C  0.40647091  0.98479755  0.25281923    -0.18800
C1264       C  0.39391190  0.99901566  0.25468934    -0.23600
C1265       C  0.37309297  0.99629001  0.25460269     0.26800
C1266       C  0.36169660  0.01011527  0.26317002    -0.20400
C1267       C  0.34206047  0.00840381  0.26326073    -0.10000
C1268       C  0.33327630  0.99289980  0.25453856    -0.10600
C1269       C  0.34465409  0.97906465  0.24583663    -0.03500
C1270       C  0.36436242  0.98072953  0.24584583    -0.18600
H1271       H  0.46669622  0.96194457  0.26370819     0.10500
H1272       H  0.43246542  0.95849216  0.26179271     0.10500
H1273       H  0.42771143  0.01719861  0.24529201     0.10200
H1274       H  0.46163851  0.02087442  0.24815979     0.11300
H1275       H  0.40142314  0.97035299  0.25167504     0.11400
H1276       H  0.39896373  0.01320082  0.25758907     0.13300
H1277       H  0.36802145  0.02231018  0.26988221     0.09800
H1278       H  0.33375546  0.01941736  0.26996223     0.11900
H1279       H  0.33833082  0.96703457  0.23885305     0.08500
H1280       H  0.37260792  0.97003794  0.23861967     0.11300
C1281       C  0.49956666  0.99893426  0.43771765    -0.03300
C1282       C  0.48589562  0.98815050  0.42831171    -0.05900
C1283       C  0.48559989  0.98752593  0.40852441    -0.21000
C1284       C  0.49889932  0.99766800  0.39767719     0.24700
C1285       C  0.51264358  0.00839341  0.40711744    -0.18600
C1286       C  0.51289091  0.00907815  0.42686867    -0.08500
C1287       C  0.49856286  0.99581797  0.37669513    -0.18800
C1288       C  0.50751567  0.00770695  0.36464265    -0.23600
C1289       C  0.50789116  0.00503135  0.34375780     0.26800
C1290       C  0.51178543  0.02061093  0.33200559    -0.20400
C1291       C  0.51269345  0.01852893  0.31232560    -0.10000
C1292       C  0.50991274  0.00071708  0.30389647    -0.10600
C1293       C  0.50612642  0.98514563  0.31574793    -0.03500
C1294       C  0.50525701  0.98720992  0.33538405    -0.18600
H1295       H  0.47545635  0.98013627  0.43622558     0.10500
H1296       H  0.47496353  0.97900198  0.40165552     0.10500
H1297       H  0.52355356  0.01593407  0.39944409     0.10200
H1298       H  0.52375581  0.01737710  0.43364240     0.11300
H1299       H  0.49020246  0.98432023  0.37102872     0.11400
H1300       H  0.51444161  0.02023063  0.37006284     0.13300
H1301       H  0.51399682  0.03449505  0.33806643     0.09800
H1302       H  0.51529270  0.03098412  0.30376719     0.11900
H1303       H  0.50411187  0.97118298  0.31003811     0.08500
H1304       H  0.50292602  0.97467884  0.34389498     0.11300
C1305       C  0.50074975  0.07498954  0.50851745    -0.03300
C1306       C  0.49024225  0.08546771  0.52180989    -0.05900
C1307       C  0.48850903  0.10510861  0.52001151    -0.21000
C1308       C  0.49728559  0.11479217  0.50497311     0.24700
C1309       C  0.50783881  0.10432032  0.49165594    -0.18600
C1310       C  0.50962153  0.08467360  0.49348550    -0.08500
C1311       C  0.49468490  0.13566829  0.50349229    -0.18800
C1312       C  0.50654879  0.14714852  0.49386726    -0.23600
C1313       C  0.50469396  0.16811448  0.49366597     0.26800
C1314       C  0.52103926  0.17903780  0.49101187    -0.20400
C1315       C  0.52015262  0.19877255  0.49152582    -0.10000
C1316       C  0.50287595  0.20801813  0.49444346    -0.10600
C1317       C  0.48632897  0.19723158  0.49624546    -0.03500
C1318       C  0.48720905  0.17741255  0.49592732    -0.18600
H1319       H  0.48320972  0.07848116  0.53355481     0.10500
H1320       H  0.48025165  0.11278078  0.53043734     0.10500
H1321       H  0.51438794  0.11109295  0.47954684     0.10200
H1322       H  0.51764958  0.07702479  0.48287410     0.11300
H1323       H  0.48321962  0.14187835  0.51166026     0.11400
H1324       H  0.51902822  0.14123051  0.48713163     0.13300
H1325       H  0.53461985  0.17226813  0.48889639     0.09800
H1326       H  0.53296449  0.20682260  0.48945714     0.11900
H1327       H  0.47281636  0.20413683  0.49832926     0.08500
H1328       H  0.47422266  0.16946961  0.49737783     0.11300
C1329       C  0.40447368  0.34737174  0.39576187    -0.03300
C1330       C  0.41220487  0.33035472  0.38898443    -0.05900
C1331       C  0.42521550  0.32020575  0.39964984    -0.21000
C1332       C  0.43095374  0.32668557  0.41743938     0.24700
C1333       C  0.42383604  0.34417747  0.42399585    -0.18600
C1334       C  0.41077458  0.35447017  0.41315314    -0.08500
C1335       C  0.44366576  0.31408225  0.42854972    -0.18800
C1336       C  0.44949249  0.31711378  0.44639930    -0.23600
C1337       C  0.46064171  0.30271660  0.45698433     0.26800
C1338       C  0.47346081  0.30853422  0.47080769    -0.20400
C1339       C  0.48393085  0.29518674  0.48100863    -0.10000
C1340       C  0.48172714  0.27560656  0.47785096    -0.10600
C1341       C  0.46850201  0.26987205  0.46419739    -0.03500
C1342       C  0.45811984  0.28321420  0.45398155    -0.18600
H1343       H  0.40808498  0.32474176  0.37538570     0.10500
H1344       H  0.43053089  0.30694378  0.39407247     0.10500
H1345       H  0.42796455  0.34986751  0.43751477     0.10200
H1346       H  0.40514438  0.36761064  0.41865817     0.11300
H1347       H  0.44816188  0.30112776  0.42160148     0.11400
H1348       H  0.44630372  0.33032228  0.45349632     0.13300
H1349       H  0.47551682  0.32345616  0.47359699     0.09800
H1350       H  0.49385153  0.30016263  0.49146575     0.11900
H1351       H  0.46577081  0.25520071  0.46122328     0.08500
H1352       H  0.44780797  0.27813278  0.44398467     0.11300
C1353       C  0.34990392  0.34682007  0.35055397    -0.03300
C1354       C  0.33025877  0.34998446  0.34997134    -0.05900
C1355       C  0.31862457  0.33867131  0.33887204    -0.21000
C1356       C  0.32610170  0.32384389  0.32802171     0.24700
C1357       C  0.34572387  0.32075615  0.32822061    -0.18600
C1358       C  0.35743286  0.33218438  0.33925049    -0.08500
C1359       C  0.31286373  0.31264628  0.31624569    -0.18800
C1360       C  0.31666784  0.29541862  0.30899461    -0.23600
C1361       C  0.30285004  0.28462568  0.29746790     0.26800
C1362       C  0.30952932  0.27094289  0.28474673    -0.20400
C1363       C  0.29698468  0.26076924  0.27347115    -0.10000
C1364       C  0.27734018  0.26384174  0.27467988    -0.10600
C1365       C  0.27067288  0.27725783  0.28786864    -0.03500
C1366       C  0.28323302  0.28741874  0.29913501    -0.18600
H1367       H  0.32352993  0.36132674  0.35760582     0.10500
H1368       H  0.30360055  0.34158017  0.33875224     0.10500
H1369       H  0.35220790  0.30987888  0.31962645     0.10200
H1370       H  0.37250940  0.32959511  0.33896824     0.11300
H1371       H  0.29919362  0.31902684  0.31364372     0.11400
H1372       H  0.33039604  0.28901239  0.31118906     0.13300
H1373       H  0.32454067  0.26829132  0.28332576     0.09800
H1374       H  0.30265152  0.25046577  0.26362190     0.11900
H1375       H  0.25586107  0.28015248  0.28980451     0.08500
H1376       H  0.27739278  0.29723582  0.30933039     0.11300
C1377       C  0.40344532  0.39388507  0.35032325    -0.03300
C1378       C  0.40836023  0.41142089  0.35816757    -0.05900
C1379       C  0.42020579  0.42392882  0.34821316    -0.21000
C1380       C  0.42755412  0.41914516  0.33028771     0.24700
C1381       C  0.42286350  0.40138308  0.32264903    -0.18600
C1382       C  0.41106417  0.38893177  0.33258469    -0.08500
C1383       C  0.43908384  0.43343264  0.31965865    -0.18800
C1384       C  0.44966906  0.42945177  0.30415965    -0.23600
C1385       C  0.46033131  0.44387742  0.29288688     0.26800
C1386       C  0.47456806  0.43775988  0.28039036    -0.20400
C1387       C  0.48457028  0.45070741  0.26913679    -0.10000
C1388       C  0.48066020  0.47023791  0.26995698    -0.10600
C1389       C  0.46609338  0.47628156  0.28230886    -0.03500
C1390       C  0.45608714  0.46331044  0.29354797    -0.18600
H1391       H  0.40253936  0.41576545  0.37168607     0.10500
H1392       H  0.42341045  0.43753995  0.35443114     0.10500
H1393       H  0.42773116  0.39710934  0.30878630     0.10200
H1394       H  0.40773915  0.37542603  0.32622482     0.11300
H1395       H  0.43893596  0.44776542  0.32510776     0.11400
H1396       H  0.45110706  0.41489627  0.29958080     0.13300
H1397       H  0.47801127  0.42285742  0.27932960     0.09800
H1398       H  0.49549819  0.44544573  0.25971601     0.11900
H1399       H  0.46194025  0.49088901  0.28342150     0.08500
H1400       H  0.44476518  0.46863384  0.30239483     0.11300
C1401       C  0.50588084  0.49721343  0.06932540    -0.03300
C1402       C  0.51879588  0.50900724  0.07862849    -0.05900
C1403       C  0.51984144  0.50901858  0.09841340    -0.21000
C1404       C  0.50797224  0.49734535  0.10939312     0.24700
C1405       C  0.49517890  0.48540228  0.10002738    -0.18600
C1406       C  0.49410721  0.48542772  0.08028889    -0.08500
C1407       C  0.50984050  0.49762842  0.13042232    -0.18800
C1408       C  0.49677159  0.49050596  0.14249874    -0.23600
C1409       C  0.49849402  0.49056502  0.16352271     0.26800
C1410       C  0.48225183  0.48694454  0.17448375    -0.20400
C1411       C  0.48304238  0.48671909  0.19424450    -0.10000
C1412       C  0.50014776  0.49009192  0.20356574    -0.10600
C1413       C  0.51649137  0.49341554  0.19266875    -0.03500
C1414       C  0.51573306  0.49355720  0.17287421    -0.18600
H1415       H  0.52817462  0.51817088  0.07063250     0.10500
H1416       H  0.52997293  0.51822265  0.10517425     0.10500
H1417       H  0.48617674  0.47568292  0.10771306     0.10200
H1418       H  0.48411156  0.47602490  0.07360944     0.11300
H1419       H  0.52223528  0.50457443  0.13601828     0.11400
H1420       H  0.48370877  0.48491467  0.13692780     0.13300
H1421       H  0.46880370  0.48445897  0.16772747     0.09800
H1422       H  0.47014768  0.48433387  0.20222294     0.11900
H1423       H  0.52996266  0.49566549  0.19943880     0.08500
H1424       H  0.52874299  0.49575195  0.16509459     0.11300
C1425       C  0.20835881  0.49051719  0.49623163    -0.03300
C1426       C  0.19883328  0.49378086  0.51343568    -0.05900
C1427       C  0.17911698  0.49441092  0.51418580    -0.21000
C1428       C  0.16839114  0.49158632  0.49783242     0.24700
C1429       C  0.17790035  0.48831013  0.48055792    -0.18600
C1430       C  0.19766310  0.48772073  0.47980353    -0.08500
C1431       C  0.14743300  0.49283161  0.49932531    -0.18800
C1432       C  0.13562278  0.48474809  0.48687212    -0.23600
C1433       C  0.11465806  0.48577878  0.48834189     0.26800
C1434       C  0.10397061  0.47218524  0.47875975    -0.20400
C1435       C  0.08426662  0.47284928  0.47912177    -0.10000
C1436       C  0.07467640  0.48725601  0.48899073    -0.10600
C1437       C  0.08533540  0.50089149  0.49865578    -0.03500
C1438       C  0.10511964  0.50021768  0.49829393    -0.18600
H1439       H  0.20657965  0.49560771  0.52644361     0.10500
H1440       H  0.17220074  0.49698991  0.52766157     0.10500
H1441       H  0.17022259  0.48665406  0.46750406     0.10200
H1442       H  0.20456862  0.48549497  0.46627128     0.11300
H1443       H  0.14163423  0.49992046  0.51167029     0.11400
H1444       H  0.14144239  0.47620657  0.47549747     0.13300
H1445       H  0.11090605  0.46096880  0.47091772     0.09800
H1446       H  0.07655278  0.46207201  0.47153824     0.11900
H1447       H  0.07840294  0.51223466  0.50629774     0.08500
H1448       H  0.11280193  0.51127918  0.50544230     0.11300
C1449       C  0.36052981  0.39846768  0.39939649    -0.03300
C1450       C  0.36578179  0.39841254  0.41848997    -0.05900
C1451       C  0.35638796  0.41019973  0.43149343    -0.21000
C1452       C  0.34162601  0.42210618  0.42555343     0.24700
C1453       C  0.33756929  0.42318504  0.40613559    -0.18600
C1454       C  0.34681090  0.41139617  0.39326761    -0.08500
C1455       C  0.33026804  0.43283102  0.43977212    -0.18800
C1456       C  0.31184647  0.43687628  0.43699929    -0.23600
C1457       C  0.29934602  0.44713438  0.45057634     0.26800
C1458       C  0.27978301  0.44658304  0.44760371    -0.20400
C1459       C  0.26731673  0.45662140  0.45927210    -0.10000
C1460       C  0.27409172  0.46765001  0.47434755    -0.10600
C1461       C  0.29376143  0.46812129  0.47731153    -0.03500
C1462       C  0.30623549  0.45802305  0.46563529    -0.18600
H1463       H  0.37629855  0.38851769  0.42351228     0.10500
H1464       H  0.36002011  0.40935176  0.44632880     0.10500
H1465       H  0.32697026  0.43283852  0.40084921     0.10200
H1466       H  0.34276901  0.41188965  0.37852043     0.11300
H1467       H  0.33687780  0.43623113  0.45312461     0.11400
H1468       H  0.30515960  0.43174312  0.42423031     0.13300
H1469       H  0.27406423  0.43846490  0.43599345     0.09800
H1470       H  0.25253871  0.45589310  0.45588459     0.11900
H1471       H  0.29952870  0.47667225  0.48857441     0.08500
H1472       H  0.32120739  0.45924624  0.46820728     0.11300
C1473       C  0.00009802  0.56320141  0.48316727    -0.03300
C1474       C  0.98912985  0.57168744  0.46894131    -0.05900
C1475       C  0.98847924  0.59136080  0.46689117    -0.21000
C1476       C  0.99859466  0.60319178  0.47907828     0.24700
C1477       C  0.00980888  0.59474583  0.49320181    -0.18600
C1478       C  0.01051304  0.57498132  0.49522047    -0.08500
C1479       C  0.99734253  0.62411903  0.47616722    -0.18800
C1480       C  0.00149869  0.63695485  0.48961347    -0.23600
C1481       C  0.00008893  0.65796898  0.48727862     0.26800
C1482       C  0.00322247  0.66927728  0.50325846    -0.20400
C1483       C  0.00251860  0.68900002  0.50207444    -0.10000
C1484       C  0.99869942  0.69806773  0.48482194    -0.10600
C1485       C  0.99532796  0.68688119  0.46878654    -0.03500
C1486       C  0.99608344  0.66705049  0.46994233    -0.18600
H1487       H  0.98101827  0.56311296  0.45927276     0.10500
H1488       H  0.97987992  0.59737308  0.45577668     0.10500
H1489       H  0.01832827  0.60323384  0.50254088     0.10200
H1490       H  0.01922147  0.56893453  0.50621699     0.11300
H1491       H  0.99201351  0.62886823  0.46264080     0.11400
H1492       H  0.00572678  0.63190065  0.50344652     0.13300
H1493       H  0.00626998  0.66281773  0.51681430     0.09800
H1494       H  0.00480252  0.69713376  0.51481025     0.11900
H1495       H  0.99256593  0.69346277  0.45523609     0.08500
H1496       H  0.99378567  0.65910377  0.45714059     0.11300
C1497       C  0.57659690  0.00005549  0.50817572    -0.03300
C1498       C  0.58682361  0.99010068  0.52196398    -0.05900
C1499       C  0.60647570  0.98916192  0.52097607    -0.21000
C1500       C  0.61633723  0.99786854  0.50605620     0.24700
C1501       C  0.60619510  0.00800088  0.49231881    -0.18600
C1502       C  0.58649588  0.00909377  0.49339393    -0.08500
C1503       C  0.63720617  0.99676982  0.50585027    -0.18800
C1504       C  0.64781662  0.99796516  0.48999996    -0.23600
C1505       C  0.66872786  0.99700015  0.49047715     0.26800
C1506       C  0.67878824  0.98997106  0.47483819    -0.20400
C1507       C  0.69852972  0.98872097  0.47521297    -0.10000
C1508       C  0.70866527  0.99457993  0.49126280    -0.10600
C1509       C  0.69838364  0.00214305  0.50662642    -0.03500
C1510       C  0.67878893  0.00341391  0.50621150    -0.18600
H1511       H  0.57965356  0.98305346  0.53359082     0.10500
H1512       H  0.61400558  0.98146021  0.53184073     0.10500
H1513       H  0.61341861  0.01536112  0.48094178     0.10200
H1514       H  0.57902311  0.01693393  0.48260150     0.11300
H1515       H  0.64399445  0.99393083  0.51928672     0.11400
H1516       H  0.64106185  0.99879381  0.47628691     0.13300
H1517       H  0.67134510  0.98527408  0.46237083     0.09800
H1518       H  0.70572839  0.98338457  0.46278438     0.11900
H1519       H  0.70512055  0.00710276  0.51925914     0.08500
H1520       H  0.67160198  0.00967134  0.51823166     0.11300
C1521       C  0.90306907  0.90061768  0.34092140    -0.03300
C1522       C  0.90332828  0.92053226  0.34217477    -0.05900
C1523       C  0.91515474  0.93131404  0.33047283    -0.21000
C1524       C  0.92707898  0.92272638  0.31707169     0.24700
C1525       C  0.92688484  0.90286164  0.31564413    -0.18600
C1526       C  0.91505781  0.89202412  0.32741338    -0.08500
C1527       C  0.93963391  0.93522015  0.30544538    -0.18800
C1528       C  0.94935505  0.92982415  0.28983767    -0.23600
C1529       C  0.96124992  0.94307703  0.27831219     0.26800
C1530       C  0.97513149  0.93567384  0.26612296    -0.20400
C1531       C  0.98652714  0.94768932  0.25511774    -0.10000
C1532       C  0.98449369  0.96752220  0.25602830    -0.10600
C1533       C  0.97008117  0.97482645  0.26781295    -0.03500
C1534       C  0.95864072  0.96281821  0.27869750    -0.18600
H1535       H  0.89474017  0.92818156  0.35218407     0.10500
H1536       H  0.91499669  0.94657377  0.33197234     0.10500
H1537       H  0.93600842  0.89550847  0.30579194     0.10200
H1538       H  0.91536178  0.87675591  0.32608256     0.11300
H1539       H  0.94072526  0.94976407  0.31014953     0.11400
H1540       H  0.94882393  0.91521877  0.28523492     0.13300
H1541       H  0.97731164  0.92052383  0.26524062     0.09800
H1542       H  0.99725886  0.94147947  0.24606076     0.11900
H1543       H  0.96719440  0.98974435  0.26880187     0.08500
H1544       H  0.94755143  0.96920282  0.28711163     0.11300
C1545       C  0.97676408  0.76263539  0.46137450    -0.03300
C1546       C  0.97953319  0.76154077  0.44165697    -0.05900
C1547       C  0.96859103  0.77235756  0.42921124    -0.21000
C1548       C  0.95429908  0.78444003  0.43600031     0.24700
C1549       C  0.95102100  0.78506146  0.45565922    -0.18600
C1550       C  0.96195982  0.77427327  0.46808921    -0.08500
C1551       C  0.94376135  0.79646271  0.42211810    -0.18800
C1552       C  0.92908900  0.80795874  0.42656172    -0.23600
C1553       C  0.91950862  0.82091184  0.41287295     0.26800
C1554       C  0.90208110  0.82903812  0.41806480    -0.20400
C1555       C  0.89304233  0.84209547  0.40621996    -0.10000
C1556       C  0.90130380  0.84749906  0.38892303    -0.10600
C1557       C  0.91861708  0.83921241  0.38358160    -0.03500
C1558       C  0.92765231  0.82617384  0.39539692    -0.18600
H1559       H  0.99048643  0.75250074  0.43586418     0.10500
H1560       H  0.97146964  0.77140305  0.41416859     0.10500
H1561       H  0.94021717  0.79396743  0.46177974     0.10200
H1562       H  0.95840675  0.77522566  0.48289188     0.11300
H1563       H  0.94850179  0.79568651  0.40752668     0.11400
H1564       H  0.92352590  0.80804204  0.44086230     0.13300
H1565       H  0.89550646  0.82543271  0.43148470     0.09800
H1566       H  0.87985865  0.84835619  0.41088782     0.11900
H1567       H  0.92528068  0.84283225  0.37022170     0.08500
H1568       H  0.94120105  0.82071959  0.39087609     0.11300
C1569       C  0.85371197  0.89301271  0.39379931    -0.03300
C1570       C  0.83569180  0.88515674  0.39650042    -0.05900
C1571       C  0.82251326  0.89392628  0.40861913    -0.21000
C1572       C  0.82712253  0.91058817  0.41848504     0.24700
C1573       C  0.84551627  0.91790179  0.41630595    -0.18600
C1574       C  0.85858690  0.90916438  0.40426215    -0.08500
C1575       C  0.81210852  0.92059919  0.42974316    -0.18800
C1576       C  0.81569336  0.93456791  0.44229551    -0.23600
C1577       C  0.80114558  0.94609348  0.45260290     0.26800
C1578       C  0.80740390  0.95907383  0.46619641    -0.20400
C1579       C  0.79468124  0.97071515  0.47592908    -0.10000
C1580       C  0.77514948  0.96983181  0.47250574    -0.10600
C1581       C  0.76883241  0.95685036  0.45876488    -0.03500
C1582       C  0.78163921  0.94518849  0.44894142    -0.18600
H1583       H  0.83148402  0.87277639  0.38861619     0.10500
H1584       H  0.80849305  0.88792550  0.40992436     0.10500
H1585       H  0.84984457  0.93080349  0.42317168     0.10200
H1586       H  0.87247659  0.91541609  0.40274872     0.11300
H1587       H  0.79765953  0.91625431  0.42734527     0.11400
H1588       H  0.83023928  0.93794044  0.44547098     0.13300
H1589       H  0.82230440  0.96028835  0.46932196     0.09800
H1590       H  0.80013540  0.98046571  0.48635010     0.11900
H1591       H  0.75410826  0.95545274  0.45533951     0.08500
H1592       H  0.77607941  0.93569184  0.43841246     0.11300
C1593       C  0.85597381  0.84731649  0.34416037    -0.03300
C1594       C  0.86269844  0.83847904  0.32765896    -0.05900
C1595       C  0.85186418  0.82496605  0.31840435    -0.21000
C1596       C  0.83393805  0.81985368  0.32527127     0.24700
C1597       C  0.82736961  0.82818710  0.34222091    -0.18600
C1598       C  0.83839863  0.84171528  0.35163612    -0.08500
C1599       C  0.82266447  0.80656999  0.31350588    -0.18800
C1600       C  0.80489167  0.80071130  0.31717120    -0.23600
C1601       C  0.79416285  0.78914944  0.30329914     0.26800
C1602       C  0.78047031  0.77625584  0.30966058    -0.20400
C1603       C  0.77012793  0.76550563  0.29671883    -0.10000
C1604       C  0.77305193  0.76747979  0.27703443    -0.10600
C1605       C  0.78659005  0.78074503  0.27077728    -0.03500
C1606       C  0.79691235  0.79141772  0.28369781    -0.18600
H1607       H  0.87641079  0.84206698  0.32179533     0.10500
H1608       H  0.85743160  0.81874067  0.30552174     0.10500
H1609       H  0.81370094  0.82465658  0.34812217     0.10200
H1610       H  0.83291865  0.84821091  0.36438765     0.11300
H1611       H  0.82943398  0.80161932  0.30059214     0.11400
H1612       H  0.79798550  0.80422647  0.33044025     0.13300
H1613       H  0.77785096  0.77441107  0.32467189     0.09800
H1614       H  0.75967303  0.75563671  0.30208581     0.11900
H1615       H  0.78923529  0.78343818  0.25599887     0.08500
H1616       H  0.80675201  0.80181656  0.27820633     0.11300
C1617       C  0.54736758  0.25481199  0.49765997    -0.03300
C1618       C  0.55691687  0.27149392  0.49231950    -0.05900
C1619       C  0.57667482  0.27230933  0.49246815    -0.21000
C1620       C  0.58738892  0.25658966  0.49813579     0.24700
C1621       C  0.57788715  0.23988704  0.50330834    -0.18600
C1622       C  0.55821170  0.23907866  0.50318878    -0.08500
C1623       C  0.60837361  0.25782263  0.49771136    -0.18800
C1624       C  0.61967729  0.24610718  0.50764196    -0.23600
C1625       C  0.64069248  0.24635007  0.50671288     0.26800
C1626       C  0.65082992  0.23611893  0.52037216    -0.20400
C1627       C  0.67057095  0.23537972  0.51976652    -0.10000
C1628       C  0.68064042  0.24483582  0.50540392    -0.10600
C1629       C  0.67050206  0.25500081  0.49167152    -0.03500
C1630       C  0.65079814  0.25569494  0.49224247    -0.18600
H1631       H  0.54921189  0.28407043  0.48827823     0.10500
H1632       H  0.58361455  0.28533536  0.48826967     0.10500
H1633       H  0.58550571  0.22717639  0.50705704     0.10200
H1634       H  0.55172892  0.22584949  0.50716389     0.11300
H1635       H  0.61450203  0.26911096  0.48927262     0.11400
H1636       H  0.61335146  0.23596356  0.51732446     0.13300
H1637       H  0.64343599  0.22862395  0.53157678     0.09800
H1638       H  0.67792406  0.22739751  0.53053813     0.11900
H1639       H  0.67778766  0.26236667  0.48031740     0.08500
H1640       H  0.64369407  0.26327622  0.48107627     0.11300
C1641       C  0.75775657  0.03653434  0.49348369    -0.03300
C1642       C  0.76108374  0.04683080  0.47675330    -0.05900
C1643       C  0.76157520  0.06666876  0.47703516    -0.21000
C1644       C  0.75864962  0.07666138  0.49399211     0.24700
C1645       C  0.75575149  0.06630372  0.51079129    -0.18600
C1646       C  0.75528090  0.04651382  0.51050594    -0.08500
C1647       C  0.75951867  0.09776470  0.49376724    -0.18800
C1648       C  0.75134893  0.10884483  0.50708343    -0.23600
C1649       C  0.75254602  0.12993526  0.50710600     0.26800
C1650       C  0.73890995  0.14042983  0.51716278    -0.20400
C1651       C  0.73959232  0.16026967  0.51752911    -0.10000
C1652       C  0.75401658  0.17006937  0.50788246    -0.10600
C1653       C  0.76794801  0.15952046  0.49826323    -0.03500
C1654       C  0.76728286  0.13974205  0.49792981    -0.18600
H1655       H  0.76290157  0.03957913  0.46338515     0.10500
H1656       H  0.76403174  0.07425121  0.46390620     0.10500
H1657       H  0.75419538  0.07335895  0.52427290     0.10200
H1658       H  0.75322620  0.03902048  0.52373931     0.11300
H1659       H  0.76657515  0.10432067  0.48175243     0.11400
H1660       H  0.74276942  0.10234471  0.51809602     0.13300
H1661       H  0.72753347  0.13325295  0.52457576     0.09800
H1662       H  0.72866270  0.16792457  0.52510128     0.11900
H1663       H  0.77943436  0.16656339  0.49090079     0.08500
H1664       H  0.77848833  0.13225076  0.49064890     0.11300
C1665       C  0.96096386  0.23403190  0.49925272    -0.03300
C1666       C  0.95140161  0.21748079  0.50482083    -0.05900
C1667       C  0.93165594  0.21709786  0.50553597    -0.21000
C1668       C  0.92109646  0.23323039  0.50079222     0.24700
C1669       C  0.93071933  0.24978167  0.49527158    -0.18600
C1670       C  0.95038547  0.25020422  0.49472239    -0.08500
C1671       C  0.90015709  0.23206284  0.50094614    -0.18800
C1672       C  0.88888203  0.24740079  0.50183669    -0.23600
C1673       C  0.86798303  0.24645561  0.50142590     0.26800
C1674       C  0.85762459  0.26172692  0.50875671    -0.20400
C1675       C  0.83792793  0.26155141  0.50855680    -0.10000
C1676       C  0.82815247  0.24615174  0.50079472    -0.10600
C1677       C  0.83851496  0.23102388  0.49306483    -0.03500
C1678       C  0.85823425  0.23116897  0.49333911    -0.18600
H1679       H  0.95912655  0.20469731  0.50817351     0.10500
H1680       H  0.92460031  0.20411200  0.50966605     0.10500
H1681       H  0.92323649  0.26238259  0.49094262     0.10200
H1682       H  0.95725419  0.26331234  0.49074666     0.11300
H1683       H  0.89392893  0.21803575  0.50089334     0.11400
H1684       H  0.89505025  0.26130005  0.50375620     0.13300
H1685       H  0.86480336  0.27378252  0.51482758     0.09800
H1686       H  0.83036969  0.27349469  0.51450116     0.11900
H1687       H  0.83139488  0.21900694  0.48686760     0.08500
H1688       H  0.86570880  0.21943912  0.48693969     0.11300
C1689       C  0.75806806  0.25037107  0.57655964    -0.03300
C1690       C  0.77136018  0.26257362  0.58480745    -0.05900
C1691       C  0.77235048  0.26448053  0.60445695    -0.21000
C1692       C  0.76020157  0.25418278  0.61639610     0.24700
C1693       C  0.74676898  0.24207891  0.60816249    -0.18600
C1694       C  0.74580743  0.24013178  0.58848150    -0.08500
C1695       C  0.76174238  0.25683689  0.63724057    -0.18800
C1696       C  0.75549260  0.24405890  0.65002027    -0.23600
C1697       C  0.75735424  0.24611315  0.67090613     0.26800
C1698       C  0.75452921  0.23000258  0.68223109    -0.20400
C1699       C  0.75560178  0.23109810  0.70191043    -0.10000
C1700       C  0.75941147  0.24839999  0.71082082    -0.10600
C1701       C  0.76240615  0.26456184  0.69957714    -0.03500
C1702       C  0.76129860  0.26348564  0.67982226    -0.18600
H1703       H  0.78102344  0.27072463  0.57607925     0.10500
H1704       H  0.78273721  0.27399488  0.61036094     0.10500
H1705       H  0.73670043  0.23434464  0.61675766     0.10200
H1706       H  0.73527940  0.23077606  0.58260021     0.11300
H1707       H  0.76920398  0.26931235  0.64201950     0.11400
H1708       H  0.74942598  0.23090927  0.64503954     0.13300
H1709       H  0.75148507  0.21644254  0.67581709     0.09800
H1710       H  0.75358181  0.21829717  0.71012514     0.11900
H1711       H  0.76508048  0.27815191  0.70607255     0.08500
H1712       H  0.76310302  0.27638066  0.67176425     0.11300
C1713       C  0.75231246  0.98817523  0.53763057    -0.03300
C1714       C  0.73469205  0.98794403  0.54680384    -0.05900
C1715       C  0.73348804  0.98671978  0.56648722    -0.21000
C1716       C  0.74990130  0.98587989  0.57741346     0.24700
C1717       C  0.76759779  0.98543175  0.56817590    -0.18600
C1718       C  0.76876432  0.98654696  0.54842972    -0.08500
C1719       C  0.74796998  0.98545550  0.59833282    -0.18800
C1720       C  0.76122748  0.99244706  0.60991804    -0.23600
C1721       C  0.75889123  0.99357943  0.63077781     0.26800
C1722       C  0.76954729  0.00698523  0.64065066    -0.20400
C1723       C  0.76801214  0.00849476  0.66029039    -0.10000
C1724       C  0.75586563  0.99647942  0.67056747    -0.10600
C1725       C  0.74521531  0.98298146  0.66070058    -0.03500
C1726       C  0.74674022  0.98149141  0.64101638    -0.18600
H1727       H  0.72182245  0.98840130  0.53875004     0.10500
H1728       H  0.71969026  0.98672917  0.57321789     0.10500
H1729       H  0.78053580  0.98411598  0.57610681     0.10200
H1730       H  0.78250950  0.98647122  0.54160547     0.11300
H1731       H  0.73457024  0.98070462  0.60417982     0.11400
H1732       H  0.77381478  0.99886803  0.60384091     0.13300
H1733       H  0.77909026  0.01638224  0.63312252     0.09800
H1734       H  0.77652827  0.01896370  0.66742940     0.11900
H1735       H  0.73592617  0.97333230  0.66821124     0.08500
H1736       H  0.73871014  0.97059295  0.63399615     0.11300
C1737       C  0.75953390  0.07220917  0.74747637    -0.03300
C1738       C  0.77155378  0.08222181  0.73508559    -0.05900
C1739       C  0.77366121  0.10182183  0.73673356    -0.21000
C1740       C  0.76373003  0.11192633  0.75068282     0.24700
C1741       C  0.75191107  0.10190995  0.76329464    -0.18600
C1742       C  0.74980910  0.08228567  0.76166237    -0.08500
C1743       C  0.76640912  0.13277237  0.75186330    -0.18800
C1744       C  0.75340576  0.14459412  0.75929278    -0.23600
C1745       C  0.75562137  0.16551958  0.75950087     0.26800
C1746       C  0.73932994  0.17681777  0.75978983    -0.20400
C1747       C  0.74072117  0.19653145  0.75943726    -0.10000
C1748       C  0.75845876  0.20540118  0.75908803    -0.10600
C1749       C  0.77480962  0.19418797  0.75952807    -0.03500
C1750       C  0.77342806  0.17440637  0.75967483    -0.18600
H1751       H  0.77940510  0.07491427  0.72410851     0.10500
H1752       H  0.78299434  0.10914943  0.72695890     0.10500
H1753       H  0.74452059  0.10907844  0.77465071     0.10200
H1754       H  0.74070831  0.07498472  0.77166317     0.11300
H1755       H  0.77900859  0.13861914  0.74525027     0.11400
H1756       H  0.73999759  0.13892975  0.76422454     0.13300
H1757       H  0.72545664  0.17036280  0.75992695     0.09800
H1758       H  0.72787770  0.20486399  0.75944376     0.11900
H1759       H  0.78864112  0.20071058  0.75927657     0.08500
H1760       H  0.78629926  0.16617052  0.76004317     0.11300
C1761       C  0.79559006  0.23804254  0.24657606    -0.03300
C1762       C  0.80401918  0.23441160  0.22889176    -0.05900
C1763       C  0.82368667  0.23414417  0.22690673    -0.21000
C1764       C  0.83535952  0.23732777  0.24254527     0.24700
C1765       C  0.82688838  0.24078228  0.26029404    -0.18600
C1766       C  0.80724510  0.24102895  0.26227031    -0.08500
C1767       C  0.85618851  0.23787121  0.23961148    -0.18800
C1768       C  0.86869067  0.23522383  0.25364817    -0.23600
C1769       C  0.88951515  0.23618130  0.25096789     0.26800
C1770       C  0.90105888  0.22717455  0.26428162    -0.20400
C1771       C  0.92070719  0.22808921  0.26271078    -0.10000
C1772       C  0.92933253  0.23826339  0.24787384    -0.10600
C1773       C  0.91779545  0.24745067  0.23459371    -0.03500
C1774       C  0.89809272  0.24644468  0.23611445    -0.18600
H1775       H  0.79543861  0.23235681  0.21645759     0.10500
H1776       H  0.82981178  0.23162230  0.21304770     0.10500
H1777       H  0.83527637  0.24381677  0.27263180     0.10200
H1778       H  0.80120950  0.24364738  0.27613631     0.11300
H1779       H  0.86129573  0.23990961  0.22523607     0.11400
H1780       H  0.86360433  0.23141651  0.26766464     0.13300
H1781       H  0.89484158  0.21933200  0.27595370     0.09800
H1782       H  0.92914061  0.22090224  0.27323571     0.11900
H1783       H  0.92398396  0.25546522  0.22303377     0.08500
H1784       H  0.88971356  0.25405866  0.22587827     0.11300
C1785       C  0.72779481  0.22161520  0.23132381    -0.03300
C1786       C  0.72898169  0.20195065  0.23434366    -0.05900
C1787       C  0.71737235  0.18938439  0.22460782    -0.21000
C1788       C  0.70407975  0.19598325  0.21152637     0.24700
C1789       C  0.70263230  0.21564634  0.20853601    -0.18600
C1790       C  0.71427674  0.22828245  0.21833468    -0.08500
C1791       C  0.69289828  0.18168065  0.20083799    -0.18800
C1792       C  0.67835335  0.18560794  0.18919621    -0.23600
C1793       C  0.66856507  0.17088710  0.17771720     0.26800
C1794       C  0.65045987  0.17463554  0.17056854    -0.20400
C1795       C  0.64130183  0.16150378  0.15893048    -0.10000
C1796       C  0.65017631  0.14443296  0.15393329    -0.10600
C1797       C  0.66814150  0.14056035  0.16139520    -0.03500
C1798       C  0.67727697  0.15362141  0.17294622    -0.18600
H1799       H  0.73913590  0.19625656  0.24423300     0.10500
H1800       H  0.71894086  0.17435107  0.22721994     0.10500
H1801       H  0.69283607  0.22145674  0.19842495     0.10200
H1802       H  0.71255300  0.24314390  0.21538174     0.11300
H1803       H  0.69694264  0.16702337  0.20291399     0.11400
H1804       H  0.67314048  0.19998130  0.18804512     0.13300
H1805       H  0.64343698  0.18785978  0.17386239     0.09800
H1806       H  0.62754997  0.16500831  0.15344346     0.11900
H1807       H  0.67532640  0.12741522  0.15818657     0.08500
H1808       H  0.69138799  0.15024005  0.17758392     0.11300
C1809       C  0.75126494  0.24335302  0.29508134    -0.03300
C1810       C  0.75546711  0.26033800  0.30441163    -0.05900
C1811       C  0.75543343  0.26116648  0.32414690    -0.21000
C1812       C  0.75136905  0.24502421  0.33503152     0.24700
C1813       C  0.74695772  0.22801751  0.32570643    -0.18600
C1814       C  0.74691844  0.22721350  0.30591917    -0.08500
C1815       C  0.75116047  0.24679241  0.35597945    -0.18800
C1816       C  0.75338462  0.23208325  0.36792238    -0.23600
C1817       C  0.75335903  0.23427820  0.38883138     0.26800
C1818       C  0.76313576  0.22104829  0.39990286    -0.20400
C1819       C  0.76345479  0.22272067  0.41961826    -0.10000
C1820       C  0.75373488  0.23753615  0.42870024    -0.10600
C1821       C  0.74364665  0.25057193  0.41762308    -0.03500
C1822       C  0.74343329  0.24896671  0.39792883    -0.18600
H1823       H  0.75844468  0.27313176  0.29647636     0.10500
H1824       H  0.75862617  0.27449944  0.33094849     0.10500
H1825       H  0.74321028  0.21539975  0.33356456     0.10200
H1826       H  0.74365140  0.21391725  0.29910547     0.11300
H1827       H  0.75005554  0.26099681  0.36170356     0.11400
H1828       H  0.75634854  0.21810492  0.36230676     0.13300
H1829       H  0.77071608  0.20948592  0.39325706     0.09800
H1830       H  0.77123094  0.21234632  0.42774321     0.11900
H1831       H  0.73589151  0.26206879  0.42416814     0.08500
H1832       H  0.73520421  0.25907138  0.38994973     0.11300
C1833       C  0.74902955  0.70266633  0.25821608    -0.03300
C1834       C  0.73142856  0.69392075  0.25561932    -0.05900
C1835       C  0.72976487  0.67423305  0.25631714    -0.21000
C1836       C  0.74568578  0.66286352  0.25935359     0.24700
C1837       C  0.76319991  0.67160568  0.26266250    -0.18600
C1838       C  0.76483954  0.69133403  0.26211042    -0.08500
C1839       C  0.74356552  0.64198201  0.25876442    -0.18800
C1840       C  0.75736752  0.63051499  0.25232875    -0.23600
C1841       C  0.75511789  0.60974685  0.25003481     0.26800
C1842       C  0.76681976  0.60031468  0.23701045    -0.20400
C1843       C  0.76549757  0.58073302  0.23462797    -0.10000
C1844       C  0.75253178  0.57008127  0.24539377    -0.10600
C1845       C  0.74078525  0.57953140  0.25844761    -0.03500
C1846       C  0.74207239  0.59913853  0.26078219    -0.18600
H1847       H  0.71888199  0.70228968  0.25310405     0.10500
H1848       H  0.71607545  0.66784136  0.25401445     0.10500
H1849       H  0.77564305  0.66324798  0.26563994     0.10200
H1850       H  0.77856679  0.69767859  0.26424253     0.11300
H1851       H  0.72973888  0.63617886  0.26206304     0.11400
H1852       H  0.77049952  0.63672710  0.24727643     0.13300
H1853       H  0.77704955  0.60814052  0.22862804     0.09800
H1854       H  0.77484574  0.57391816  0.22453855     0.11900
H1855       H  0.73077909  0.57173998  0.26711647     0.08500
H1856       H  0.73316408  0.60580040  0.27133292     0.11300
C1857       C  0.67888062  0.49161131  0.24415901    -0.03300
C1858       C  0.66947687  0.47886240  0.23224784    -0.05900
C1859       C  0.64983381  0.47704261  0.23308817    -0.21000
C1860       C  0.63905983  0.48796262  0.24574601     0.24700
C1861       C  0.64847966  0.50048303  0.25794722    -0.18600
C1862       C  0.66814968  0.50231767  0.25709827    -0.08500
C1863       C  0.61816273  0.48554037  0.24596207    -0.18800
C1864       C  0.60603060  0.49856185  0.25286203    -0.23600
C1865       C  0.58511924  0.49652736  0.25223534     0.26800
C1866       C  0.57398466  0.51292359  0.25343179    -0.20400
C1867       C  0.55431660  0.51179252  0.25268558    -0.10000
C1868       C  0.54531476  0.49425309  0.25083580    -0.10600
C1869       C  0.55630192  0.47773616  0.25024942    -0.03500
C1870       C  0.57604054  0.47882807  0.25091661    -0.18600
H1871       H  0.67728858  0.47024712  0.22223925     0.10500
H1872       H  0.64300472  0.46714239  0.22367356     0.10500
H1873       H  0.64083810  0.50868690  0.26838382     0.10200
H1874       H  0.67495749  0.51204646  0.26669365     0.11300
H1875       H  0.61262984  0.47300284  0.23913040     0.11400
H1876       H  0.61147085  0.51186290  0.25816263     0.13300
H1877       H  0.58053314  0.52669854  0.25483202     0.09800
H1878       H  0.54614978  0.52461146  0.25397755     0.11900
H1879       H  0.54960698  0.46401800  0.24904425     0.08500
H1880       H  0.58403424  0.46579038  0.25063044     0.11300
C1881       C  0.75480403  0.28734080  0.24801776    -0.03300
C1882       C  0.77260075  0.29583920  0.25009191    -0.05900
C1883       C  0.77441854  0.31553231  0.25036505    -0.21000
C1884       C  0.75854351  0.32725346  0.24843798     0.24700
C1885       C  0.74069795  0.31871529  0.24618460    -0.18600
C1886       C  0.73890100  0.29898985  0.24586739    -0.08500
C1887       C  0.76121367  0.34817597  0.24943797    -0.18800
C1888       C  0.74837050  0.36077370  0.24325147    -0.23600
C1889       C  0.75091429  0.38168768  0.24367386     0.26800
C1890       C  0.73939381  0.39266255  0.23193492    -0.20400
C1891       C  0.74078336  0.41232954  0.23181612    -0.10000
C1892       C  0.75368355  0.42170326  0.24358101    -0.10600
C1893       C  0.76518873  0.41079269  0.25552796    -0.03500
C1894       C  0.76381913  0.39095556  0.25560727    -0.18600
H1895       H  0.78520719  0.28728328  0.25142546     0.10500
H1896       H  0.78832310  0.32163833  0.25210740     0.10500
H1897       H  0.72795532  0.32705812  0.24521279     0.10200
H1898       H  0.72496121  0.29286889  0.24457529     0.11300
H1899       H  0.77461987  0.35324456  0.25473821     0.11400
H1900       H  0.73563920  0.35566979  0.23656009     0.13300
H1901       H  0.72923834  0.38597799  0.22271538     0.09800
H1902       H  0.73157299  0.42019297  0.22249510     0.11900
H1903       H  0.77511855  0.41757226  0.26490451     0.08500
H1904       H  0.77260892  0.38306163  0.26526274     0.11300
C1905       C  0.96087700  0.49219784  0.23389362    -0.03300
C1906       C  0.95103820  0.47500909  0.23409486    -0.05900
C1907       C  0.93137338  0.47471423  0.23552691    -0.21000
C1908       C  0.92099041  0.49160737  0.23681226     0.24700
C1909       C  0.93088837  0.50894456  0.23632668    -0.18600
C1910       C  0.95063927  0.50919119  0.23477335    -0.08500
C1911       C  0.90005826  0.49015629  0.23907329    -0.18800
C1912       C  0.88796416  0.50487989  0.23825697    -0.23600
C1913       C  0.86706207  0.50281288  0.24001468     0.26800
C1914       C  0.85556256  0.51712274  0.23254465    -0.20400
C1915       C  0.83589852  0.51564141  0.23338353    -0.10000
C1916       C  0.82716976  0.49988836  0.24196841    -0.10600
C1917       C  0.83862519  0.48581994  0.25001410    -0.03500
C1918       C  0.85835805  0.48724073  0.24905862    -0.18600
H1919       H  0.95855337  0.46174578  0.23312433     0.10500
H1920       H  0.92424504  0.46115209  0.23578501     0.10500
H1921       H  0.92366868  0.52235113  0.23756852     0.10200
H1922       H  0.95796150  0.52264235  0.23494839     0.11300
H1923       H  0.89437432  0.47601182  0.24088190     0.11400
H1924       H  0.89326444  0.51893981  0.23517839     0.13300
H1925       H  0.86181824  0.52939512  0.22574816     0.09800
H1926       H  0.82751510  0.52689327  0.22726917     0.11900
H1927       H  0.83234241  0.47360706  0.25687256     0.08500
H1928       H  0.86664258  0.47620992  0.25561599     0.11300
C1929       C  0.79294247  0.49745669  0.50070061    -0.03300
C1930       C  0.80196528  0.50036591  0.51809873    -0.05900
C1931       C  0.82170379  0.49926552  0.51935030    -0.21000
C1932       C  0.83281923  0.49542055  0.50323658     0.24700
C1933       C  0.82368335  0.49257651  0.48585958    -0.18600
C1934       C  0.80407177  0.49377432  0.48463382    -0.08500
C1935       C  0.85374477  0.49380772  0.50507248    -0.18800
C1936       C  0.86569521  0.49602323  0.49026549    -0.23600
C1937       C  0.88662209  0.49418899  0.49115815     0.26800
C1938       C  0.89730108  0.50138179  0.47596325    -0.20400
C1939       C  0.91693398  0.49978932  0.47567158    -0.10000
C1940       C  0.92649037  0.49077326  0.49053038    -0.10600
C1941       C  0.91585045  0.48329064  0.50569105    -0.03500
C1942       C  0.89610264  0.48497685  0.50602911    -0.18600
H1943       H  0.79375826  0.50302103  0.53080577     0.10500
H1944       H  0.82830674  0.50134718  0.53295866     0.10500
H1945       H  0.83148228  0.48899716  0.47316021     0.10200
H1946       H  0.79765032  0.49184625  0.47099456     0.11300
H1947       H  0.85933965  0.49134367  0.51910532     0.11400
H1948       H  0.86001176  0.50014459  0.47666209     0.13300
H1949       H  0.89041592  0.50836637  0.46422156     0.09800
H1950       H  0.92462558  0.50562468  0.46371019     0.11900
H1951       H  0.92278376  0.47621221  0.51733675     0.08500
H1952       H  0.88840722  0.47880152  0.51777844     0.11300
C1953       C  0.75124939  0.49587136  0.31703232    -0.03300
C1954       C  0.73616039  0.50545671  0.32586082    -0.05900
C1955       C  0.73466880  0.50631588  0.34552945    -0.21000
C1956       C  0.74812679  0.49759574  0.35708084     0.24700
C1957       C  0.76330846  0.48791616  0.34833322    -0.18600
C1958       C  0.76478929  0.48701723  0.32850245    -0.08500
C1959       C  0.74588533  0.49968011  0.37801628    -0.18800
C1960       C  0.75485315  0.48894194  0.39091205    -0.23600
C1961       C  0.75276678  0.49133765  0.41182254     0.26800
C1962       C  0.76670978  0.48356237  0.42339371    -0.20400
C1963       C  0.76556174  0.48507357  0.44304732    -0.10000
C1964       C  0.75029769  0.49435945  0.45200624    -0.10600
C1965       C  0.73611883  0.50201189  0.44033295    -0.03500
C1966       C  0.73731710  0.50052990  0.42052821    -0.18600
H1967       H  0.72538643  0.51240326  0.31755699     0.10500
H1968       H  0.72286988  0.51389696  0.35176100     0.10500
H1969       H  0.77429223  0.48135059  0.35660295     0.10200
H1970       H  0.77664603  0.47963002  0.32216937     0.11300
H1971       H  0.73626825  0.51061601  0.38287393     0.11400
H1972       H  0.76454332  0.47804739  0.38612340     0.13300
H1973       H  0.77872489  0.47630865  0.41717785     0.09800
H1974       H  0.77694362  0.47887050  0.45087959     0.11900
H1975       H  0.72383253  0.50885979  0.44636375     0.08500
H1976       H  0.72588458  0.50624016  0.41223119     0.11300
C1977       C  0.72485403  0.51926116  0.51547267    -0.03300
C1978       C  0.70531550  0.51591974  0.51351699    -0.05900
C1979       C  0.69189775  0.52651751  0.52371176    -0.21000
C1980       C  0.69753291  0.54113977  0.53583185     0.24700
C1981       C  0.71697214  0.54474540  0.53762742    -0.18600
C1982       C  0.73037965  0.53406942  0.52760917    -0.08500
C1983       C  0.68304925  0.55186811  0.54706761    -0.18800
C1984       C  0.68576601  0.56994017  0.55261055    -0.23600
C1985       C  0.67282682  0.58132346  0.56500437     0.26800
C1986       C  0.67694405  0.60062709  0.56713686    -0.20400
C1987       C  0.66694333  0.61178409  0.58002764    -0.10000
C1988       C  0.65244104  0.60402869  0.59126496    -0.10600
C1989       C  0.64751179  0.58496009  0.58861157    -0.03500
C1990       C  0.65769475  0.57362235  0.57566332    -0.18600
H1991       H  0.70042724  0.50475501  0.50429856     0.10500
H1992       H  0.67704913  0.52329781  0.52208688     0.10500
H1993       H  0.72199874  0.55552379  0.54719394     0.10200
H1994       H  0.74497044  0.53766035  0.52973864     0.11300
H1995       H  0.66985612  0.54478595  0.55041625     0.11400
H1996       H  0.69845658  0.57709893  0.54769830     0.13300
H1997       H  0.68837738  0.60706540  0.55914154     0.09800
H1998       H  0.67089045  0.62650902  0.58156611     0.11900
H1999       H  0.63642887  0.57863702  0.59716386     0.08500
H2000       H  0.65410919  0.55879680  0.57461888     0.11300
C2001       C  0.74666157  0.45239069  0.50163682    -0.03300
C2002       C  0.74402435  0.44369588  0.51934297    -0.05900
C2003       C  0.74449574  0.42395570  0.52099956    -0.21000
C2004       C  0.74729521  0.41254396  0.50497528     0.24700
C2005       C  0.74986713  0.42130472  0.48724275    -0.18600
C2006       C  0.74950769  0.44099969  0.48561818    -0.08500
C2007       C  0.74840640  0.39166718  0.50734921    -0.18800
C2008       C  0.74454711  0.37939706  0.49333263    -0.23600
C2009       C  0.74638673  0.35853137  0.49527819     0.26800
C2010       C  0.73622587  0.34685338  0.48297426    -0.20400
C2011       C  0.73797646  0.32716655  0.48394798    -0.10000
C2012       C  0.75011754  0.31869869  0.49715626    -0.10600
C2013       C  0.76046755  0.33040544  0.50933770    -0.03500
C2014       C  0.75866254  0.35009605  0.50840143    -0.18600
H2015       H  0.74209309  0.45216294  0.53196026     0.10500
H2016       H  0.74271762  0.41757087  0.53484904     0.10500
H2017       H  0.75263776  0.41307262  0.47464181     0.10200
H2018       H  0.75147789  0.44732211  0.47176896     0.11300
H2019       H  0.75193341  0.38632644  0.52129159     0.11400
H2020       H  0.73920360  0.38472931  0.47998953     0.13300
H2021       H  0.72683108  0.35298856  0.47260057     0.09800
H2022       H  0.72982556  0.31859175  0.47431263     0.11900
H2023       H  0.77002698  0.32436217  0.51960064     0.08500
H2024       H  0.76721199  0.35860629  0.51770761     0.11300
C2025       C  0.49724880  0.56897292  0.99468975    -0.03300
C2026       C  0.48415914  0.57788363  0.98274434    -0.05900
C2027       C  0.48208188  0.59753910  0.98281969    -0.21000
C2028       C  0.49311273  0.60884819  0.99468222     0.24700
C2029       C  0.50601270  0.59997157  0.00692535    -0.18600
C2030       C  0.50807640  0.58024233  0.00688084    -0.08500
C2031       C  0.49044690  0.62973700  0.99396591    -0.18800
C2032       C  0.50382156  0.64224066  0.99905140    -0.23600
C2033       C  0.50170574  0.66315878  0.99728873     0.26800
C2034       C  0.51807214  0.67433360  0.99756871    -0.20400
C2035       C  0.51691253  0.69402510  0.99632864    -0.10000
C2036       C  0.49932512  0.70306400  0.99483614    -0.10600
C2037       C  0.48289250  0.69199179  0.99439904    -0.03500
C2038       C  0.48402791  0.67223056  0.99575606    -0.18600
H2039       H  0.47548217  0.56967364  0.97325764     0.10500
H2040       H  0.47192960  0.60396335  0.97337876     0.10500
H2041       H  0.51434359  0.60812061  0.01673870     0.10200
H2042       H  0.51810669  0.57382261  0.01644332     0.11300
H2043       H  0.47744184  0.63484191  0.98776539     0.11400
H2044       H  0.51742445  0.63700249  0.00371514     0.13300
H2045       H  0.53185756  0.66779723  0.99874210     0.09800
H2046       H  0.52984348  0.70219724  0.99647912     0.11900
H2047       H  0.46914374  0.69864794  0.99359328     0.08500
H2048       H  0.47100433  0.66427162  0.99604424     0.11300
C2049       C  0.50540717  0.00079687  0.58589195    -0.03300
C2050       C  0.51860472  0.98924261  0.59518040    -0.05900
C2051       C  0.51953881  0.98898974  0.61489844    -0.21000
C2052       C  0.50717481  0.00005615  0.62581982     0.24700
C2053       C  0.49399322  0.01170570  0.61659055    -0.18600
C2054       C  0.49312600  0.01205519  0.59681876    -0.08500
C2055       C  0.50907384  0.99966248  0.64670787    -0.18800
C2056       C  0.49484525  0.00369948  0.65879267    -0.23600
C2057       C  0.49713390  0.00322844  0.67966404     0.26800
C2058       C  0.48136750  0.99965497  0.69125807    -0.20400
C2059       C  0.48309575  0.99927703  0.71097415    -0.10000
C2060       C  0.50065206  0.00265617  0.71956141    -0.10600
C2061       C  0.51630158  0.00660089  0.70786045    -0.03500
C2062       C  0.51459775  0.00689736  0.68820410    -0.18600
H2063       H  0.52832262  0.98043300  0.58722103     0.10500
H2064       H  0.52992599  0.98002895  0.62166209     0.10500
H2065       H  0.48460908  0.02085156  0.62453757     0.10200
H2066       H  0.48287333  0.02119198  0.59010162     0.11300
H2067       H  0.52252523  0.99493843  0.65227728     0.11400
H2068       H  0.48084435  0.00656119  0.65333174     0.13300
H2069       H  0.46767933  0.99707667  0.68503679     0.09800
H2070       H  0.47056132  0.99670015  0.71943501     0.11900
H2071       H  0.52999877  0.00942846  0.71371793     0.08500
H2072       H  0.52694967  0.01037393  0.67979389     0.11300
C2073       C  0.54877148  0.99907502  0.76456266    -0.03300
C2074       C  0.55843796  0.99804185  0.78181596    -0.05900
C2075       C  0.57821831  0.99787161  0.78211920    -0.21000
C2076       C  0.58874668  0.99839498  0.76519717     0.24700
C2077       C  0.57901478  0.99930828  0.74792776    -0.18600
C2078       C  0.55928080  0.99962525  0.74766403    -0.08500
C2079       C  0.60976446  0.99886901  0.76604879    -0.18800
C2080       C  0.62096340  0.99274328  0.75180491    -0.23600
C2081       C  0.64198351  0.99365237  0.75186078     0.26800
C2082       C  0.65204086  0.98215154  0.73913289    -0.20400
C2083       C  0.67171155  0.98317992  0.73780580    -0.10000
C2084       C  0.68188497  0.99589521  0.74909185    -0.10600
C2085       C  0.67185867  0.00736951  0.76196132    -0.03500
C2086       C  0.65212649  0.00630049  0.76332301    -0.18600
H2087       H  0.55070775  0.99788357  0.79509420     0.10500
H2088       H  0.58532776  0.99737754  0.79562494     0.10500
H2089       H  0.58653640  0.00027409  0.73458409     0.10200
H2090       H  0.55227347  0.00025066  0.73418696     0.11300
H2091       H  0.61606874  0.00382048  0.77907031     0.11400
H2092       H  0.61450851  0.98617972  0.73958768     0.13300
H2093       H  0.64462262  0.97235075  0.73007017     0.09800
H2094       H  0.67892990  0.97406359  0.72780001     0.11900
H2095       H  0.67923905  0.01731396  0.77088705     0.08500
H2096       H  0.64492641  0.01574415  0.77299578     0.11300
C2097       C  0.34927513  0.89862086  0.89905373    -0.03300
C2098       C  0.33763975  0.91165343  0.88950998    -0.05900
C2099       C  0.32577557  0.92397301  0.89950078    -0.21000
C2100       C  0.32488141  0.92335872  0.91930825     0.24700
C2101       C  0.33621188  0.91021583  0.92893816    -0.18600
C2102       C  0.34815940  0.89797662  0.91898658    -0.08500
C2103       C  0.31268481  0.93714232  0.92952802    -0.18800
C2104       C  0.30560559  0.93387953  0.94698223    -0.23600
C2105       C  0.29386159  0.94774100  0.95759288     0.26800
C2106       C  0.28167861  0.94108754  0.97182976    -0.20400
C2107       C  0.27081549  0.95368264  0.98253558    -0.10000
C2108       C  0.27209367  0.97336777  0.97960817    -0.10600
C2109       C  0.28440124  0.97999904  0.96526838    -0.03500
C2110       C  0.29515481  0.96735063  0.95444604    -0.18600
H2111       H  0.33797409  0.91248493  0.87420494     0.10500
H2112       H  0.31725444  0.93402072  0.89171666     0.10500
H2113       H  0.33630072  0.90961614  0.94423117     0.10200
H2114       H  0.35638061  0.88825878  0.92728430     0.11300
H2115       H  0.30892022  0.95005058  0.92209870     0.11400
H2116       H  0.30783667  0.92018773  0.95359692     0.13300
H2117       H  0.28049902  0.92605329  0.97464570     0.09800
H2118       H  0.26144518  0.94803589  0.99333840     0.11900
H2119       H  0.28598582  0.99483100  0.96212067     0.08500
H2120       H  0.30476531  0.97306390  0.94392520     0.11300
C2121       C  0.47701690  0.76934749  0.97350319    -0.03300
C2122       C  0.47902743  0.78898029  0.97612047    -0.05900
C2123       C  0.46903173  0.80191824  0.96511410    -0.21000
C2124       C  0.45673055  0.79577189  0.95093601     0.24700
C2125       C  0.45450070  0.77614670  0.94823384    -0.18600
C2126       C  0.46453042  0.76310250  0.95935553    -0.08500
C2127       C  0.44623893  0.81050171  0.94002402    -0.18800
C2128       C  0.43625415  0.80741457  0.92408792    -0.23600
C2129       C  0.42523889  0.82240433  0.91390112     0.26800
C2130       C  0.41629395  0.81776730  0.89678358    -0.20400
C2131       C  0.40474901  0.83092316  0.88743431    -0.10000
C2132       C  0.40179387  0.84898774  0.89509298    -0.10600
C2133       C  0.41132634  0.85392109  0.91172314    -0.03500
C2134       C  0.42278355  0.84086688  0.92105384    -0.18600
H2135       H  0.48853930  0.79436093  0.98676167     0.10500
H2136       H  0.47102457  0.81689337  0.96768292     0.10500
H2137       H  0.44491872  0.77069431  0.93775261     0.10200
H2138       H  0.46241561  0.74826546  0.95657109     0.11300
H2139       H  0.44726835  0.82471100  0.94555369     0.11400
H2140       H  0.43600441  0.79331801  0.91808606     0.13300
H2141       H  0.41788518  0.80374101  0.89082965     0.09800
H2142       H  0.39752163  0.82669632  0.87467991     0.11900
H2143       H  0.40964086  0.86788699  0.91779192     0.08500
H2144       H  0.42915104  0.84544440  0.93406808     0.11300
C2145       C  0.40119070  0.89627654  0.85010560    -0.03300
C2146       C  0.41967806  0.88922612  0.84852413    -0.05900
C2147       C  0.43345697  0.89928190  0.83823372    -0.21000
C2148       C  0.42901797  0.91657150  0.82940716     0.24700
C2149       C  0.41024836  0.92307275  0.83026731    -0.18600
C2150       C  0.39656935  0.91310201  0.84055582    -0.08500
C2151       C  0.44404176  0.92743457  0.81918749    -0.18800
C2152       C  0.44346671  0.94646819  0.81739542    -0.23600
C2153       C  0.45764556  0.95823897  0.80697409     0.26800
C2154       C  0.45713369  0.97791697  0.80953572    -0.20400
C2155       C  0.46920355  0.98989884  0.79934551    -0.10000
C2156       C  0.48222516  0.98255738  0.78606257    -0.10600
C2157       C  0.48288628  0.96274126  0.78372561    -0.03500
C2158       C  0.47077793  0.95073252  0.79397112    -0.18600
H2159       H  0.42365403  0.87635470  0.85583179     0.10500
H2160       H  0.44773775  0.89381342  0.83759741     0.10500
H2161       H  0.40601648  0.93584968  0.82297269     0.10200
H2162       H  0.38232411  0.91866291  0.84117583     0.11300
H2163       H  0.45610799  0.91959772  0.81383085     0.11400
H2164       H  0.43208034  0.95411083  0.82435961     0.13300
H2165       H  0.44712900  0.98415121  0.81938696     0.09800
H2166       H  0.46779874  0.00483043  0.80195695     0.11900
H2167       H  0.49263052  0.95654872  0.77360059     0.08500
H2168       H  0.47147327  0.93570666  0.79122797     0.11300
C2169       C  0.57438036  0.74425291  0.24519783    -0.03300
C2170       C  0.58440220  0.73140533  0.23377436    -0.05900
C2171       C  0.60416811  0.73155356  0.23338366    -0.21000
C2172       C  0.61435456  0.74449590  0.24439147     0.24700
C2173       C  0.60428405  0.75746680  0.25569489    -0.18600
C2174       C  0.58457131  0.75722631  0.25618713    -0.08500
C2175       C  0.63535462  0.74440229  0.24319690    -0.18800
C2176       C  0.64661506  0.75234847  0.25627782    -0.23600
C2177       C  0.66760075  0.75208436  0.25522473     0.26800
C2178       C  0.67785469  0.75524872  0.27184734    -0.20400
C2179       C  0.69758451  0.75479526  0.27162889    -0.10000
C2180       C  0.70748897  0.75122376  0.25472371    -0.10600
C2181       C  0.69730233  0.74860004  0.23798225    -0.03500
C2182       C  0.67757490  0.74913194  0.23817258    -0.18600
H2183       H  0.57698382  0.72122345  0.22515185     0.10500
H2184       H  0.61153731  0.72148996  0.22444589     0.10500
H2185       H  0.61142947  0.76812662  0.26390795     0.10200
H2186       H  0.57730064  0.76746944  0.26499169     0.11300
H2187       H  0.64165092  0.73676230  0.23144764     0.11400
H2188       H  0.64037437  0.75851859  0.26888713     0.13300
H2189       H  0.67056322  0.75776065  0.28513807     0.09800
H2190       H  0.70505670  0.75674599  0.28478661     0.11900
H2191       H  0.70459119  0.74632322  0.22465686     0.08500
H2192       H  0.67030876  0.74742738  0.22489539     0.11300
C2193       C  0.50131947  0.67134770  0.24170400    -0.03300
C2194       C  0.51322541  0.66221031  0.22862887    -0.05900
C2195       C  0.51356689  0.64245858  0.22754266    -0.21000
C2196       C  0.50200300  0.63138484  0.23941917     0.24700
C2197       C  0.49015595  0.64056329  0.25259442    -0.18600
C2198       C  0.48977680  0.66028728  0.25363559    -0.08500
C2199       C  0.50344182  0.61041826  0.23811144    -0.18800
C2200       C  0.49111821  0.59825528  0.24622816    -0.23600
C2201       C  0.49333683  0.57732882  0.24565289     0.26800
C2202       C  0.47768465  0.56589453  0.24999122    -0.20400
C2203       C  0.47936923  0.54617641  0.25041025    -0.10000
C2204       C  0.49682229  0.53740558  0.24656953    -0.10600
C2205       C  0.51235291  0.54887976  0.24186218    -0.03500
C2206       C  0.51074831  0.56855576  0.24167852    -0.18600
H2207       H  0.52236086  0.67030026  0.21929330     0.10500
H2208       H  0.52297391  0.63579561  0.21739485     0.10500
H2209       H  0.48140418  0.63274223  0.26244520     0.10200
H2210       H  0.48052181  0.66686184  0.26397163     0.11300
H2211       H  0.51506894  0.60492154  0.22971043     0.11400
H2212       H  0.47859577  0.60361618  0.25330308     0.13300
H2213       H  0.46408621  0.57224208  0.25310481     0.09800
H2214       H  0.46691887  0.53784845  0.25357873     0.11900
H2215       H  0.52596116  0.54284092  0.23863697     0.08500
H2216       H  0.52336142  0.57669943  0.23882251     0.11300
C2217       C  0.49606598  0.75001801  0.17330766    -0.03300
C2218       C  0.48147103  0.76073347  0.16514097    -0.05900
C2219       C  0.47942456  0.76161728  0.14551082    -0.21000
C2220       C  0.49203267  0.75205775  0.13349805     0.24700
C2221       C  0.50666041  0.74128437  0.14160830    -0.18600
C2222       C  0.50864883  0.74029786  0.16130007    -0.08500
C2223       C  0.48904722  0.75311770  0.11268593    -0.18800
C2224       C  0.50313777  0.75098049  0.09996634    -0.23600
C2225       C  0.50073310  0.75181958  0.07904754     0.26800
C2226       C  0.51701150  0.75372328  0.06776230    -0.20400
C2227       C  0.51589078  0.75334064  0.04807192    -0.10000
C2228       C  0.49847513  0.75101830  0.03913207    -0.10600
C2229       C  0.48201480  0.74962479  0.05023956    -0.03500
C2230       C  0.48311058  0.74988681  0.07005758    -0.18600
H2231       H  0.47144261  0.76832955  0.17392930     0.10500
H2232       H  0.46796041  0.76988270  0.13967597     0.10500
H2233       H  0.51633425  0.73323821  0.13285590     0.10200
H2234       H  0.51995308  0.73180917  0.16711116     0.11300
H2235       H  0.47497125  0.75666660  0.10789481     0.11400
H2236       H  0.51742831  0.74906877  0.10507790     0.13300
H2237       H  0.53074029  0.75533269  0.07421657     0.09800
H2238       H  0.52868714  0.75493445  0.03980416     0.11900
H2239       H  0.46842122  0.74769934  0.04359902     0.08500
H2240       H  0.47022945  0.74800507  0.07813853     0.11300
C2241       C  0.51695038  0.95166080  0.26008530    -0.03300
C2242       C  0.51654626  0.94159199  0.27721156    -0.05900
C2243       C  0.51739679  0.92182933  0.27734712    -0.21000
C2244       C  0.51829917  0.91169419  0.26033120     0.24700
C2245       C  0.51936409  0.92177561  0.24315282    -0.18600
C2246       C  0.51874793  0.94158436  0.24305503    -0.08500
C2247       C  0.51798543  0.89068089  0.26103378    -0.18800
C2248       C  0.50999679  0.88010164  0.24743202    -0.23600
C2249       C  0.50812316  0.85915921  0.24855312     0.26800
C2250       C  0.49387016  0.85030688  0.23809808    -0.20400
C2251       C  0.49168012  0.83063788  0.23857772    -0.10000
C2252       C  0.50382879  0.81932450  0.24944173    -0.10600
C2253       C  0.51821051  0.82818254  0.25981221    -0.03500
C2254       C  0.52037709  0.84785706  0.25934874    -0.18600
H2255       H  0.51566463  0.94897223  0.29052532     0.10500
H2256       H  0.51686238  0.91441430  0.29077633     0.10500
H2257       H  0.52065557  0.91441119  0.22979787     0.10200
H2258       H  0.51914024  0.94900541  0.22963386     0.11300
H2259       H  0.52296200  0.88394624  0.27388108     0.11400
H2260       H  0.50337298  0.88714727  0.23552820     0.13300
H2261       H  0.48431988  0.85866365  0.22956830     0.09800
H2262       H  0.48053473  0.82429888  0.23032856     0.11900
H2263       H  0.52798676  0.81989290  0.26813669     0.08500
H2264       H  0.53189204  0.85405989  0.26714835     0.11300
C2265       C  0.27788439  0.77580825  0.76643731    -0.03300
C2266       C  0.27264662  0.77618449  0.78569759    -0.05900
C2267       C  0.28256145  0.78710895  0.79871260    -0.21000
C2268       C  0.29823637  0.79787881  0.79302178     0.24700
C2269       C  0.30344416  0.79788043  0.77375923    -0.18600
C2270       C  0.29338785  0.78700386  0.76061801    -0.08500
C2271       C  0.30819342  0.80926200  0.80763056    -0.18800
C2272       C  0.32637377  0.81500199  0.80632262    -0.23600
C2273       C  0.33622153  0.82602124  0.82141591     0.26800
C2274       C  0.35334129  0.83524275  0.81704178    -0.20400
C2275       C  0.36259033  0.84635061  0.83058305    -0.10000
C2276       C  0.35486220  0.84850942  0.84879897    -0.10600
C2277       C  0.33826745  0.83857063  0.85344912    -0.03500
C2278       C  0.32911916  0.82742840  0.84003639    -0.18600
H2279       H  0.26086034  0.76775649  0.79074809     0.10500
H2280       H  0.27809282  0.78691864  0.81340815     0.10500
H2281       H  0.31511494  0.80641830  0.76870678     0.10200
H2282       H  0.29809919  0.78738143  0.74608520     0.11300
H2283       H  0.30001528  0.81256878  0.82020234     0.11400
H2284       H  0.33445652  0.81165009  0.79366452     0.13300
H2285       H  0.35936137  0.83421563  0.80294691     0.09800
H2286       H  0.37535765  0.85382123  0.82657473     0.11900
H2287       H  0.33224194  0.83947971  0.86754727     0.08500
H2288       H  0.31655731  0.81996643  0.84452703     0.11300
C2289       C  0.00119013  0.74686978  0.52768276    -0.03300
C2290       C  0.01903007  0.74711552  0.53616186    -0.05900
C2291       C  0.02066142  0.74874607  0.55575910    -0.21000
C2292       C  0.00450654  0.74980130  0.56731471     0.24700
C2293       C  0.98660105  0.74999798  0.55879048    -0.18600
C2294       C  0.98498351  0.74860673  0.53911761    -0.08500
C2295       C  0.00698654  0.75085017  0.58811841    -0.18800
C2296       C  0.99415683  0.74419185  0.60062328    -0.23600
C2297       C  0.99717325  0.74400563  0.62142687     0.26800
C2298       C  0.98673207  0.73125855  0.63259790    -0.20400
C2299       C  0.98908823  0.73061411  0.65220948    -0.10000
C2300       C  0.00191021  0.74280667  0.66113013    -0.10600
C2301       C  0.01225862  0.75569166  0.64997052    -0.03500
C2302       C  0.00986278  0.75636795  0.63036659    -0.18600
H2303       H  0.03175467  0.74619861  0.52761162     0.10500
H2304       H  0.03460578  0.74884174  0.56195224     0.10500
H2305       H  0.97385993  0.75137629  0.56722010     0.10200
H2306       H  0.97107129  0.74853337  0.53286621     0.11300
H2307       H  0.02051289  0.75590484  0.59311953     0.11400
H2308       H  0.98143028  0.73748127  0.59542254     0.13300
H2309       H  0.97676682  0.72167708  0.62611194     0.09800
H2310       H  0.98080519  0.72058717  0.66037912     0.11900
H2311       H  0.02205435  0.76547104  0.65640673     0.08500
H2312       H  0.01772538  0.76684863  0.62240425     0.11300
C2313       C  0.21414295  0.75525551  0.74092539    -0.03300
C2314       C  0.20447048  0.77259204  0.74276932    -0.05900
C2315       C  0.18485073  0.77349388  0.74049528    -0.21000
C2316       C  0.17445404  0.75711637  0.73644637     0.24700
C2317       C  0.18414920  0.73991773  0.73413464    -0.18600
C2318       C  0.20364490  0.73899533  0.73647869    -0.08500
C2319       C  0.15361617  0.75833977  0.73437848    -0.18800
C2320       C  0.14219200  0.74347957  0.73791046    -0.23600
C2321       C  0.12132493  0.74395113  0.73623530     0.26800
C2322       C  0.11081882  0.73012939  0.74592468    -0.20400
C2323       C  0.09117869  0.72977990  0.74478365    -0.10000
C2324       C  0.08153669  0.74315579  0.73371734    -0.10600
C2325       C  0.09204389  0.75678418  0.72364653    -0.03500
C2326       C  0.11176534  0.75719692  0.72488190    -0.18600
H2327       H  0.21201858  0.78555180  0.74568347     0.10500
H2328       H  0.17775658  0.78699529  0.74204672     0.10500
H2329       H  0.17680019  0.72709591  0.73027615     0.10200
H2330       H  0.21027045  0.72534940  0.73488169     0.11300
H2331       H  0.14759660  0.77200973  0.73083483     0.11400
H2332       H  0.14827078  0.73043513  0.74326078     0.13300
H2333       H  0.11783259  0.71963208  0.75459204     0.09800
H2334       H  0.08354875  0.71901796  0.75264889     0.11900
H2335       H  0.08502469  0.76723861  0.71494912     0.08500
H2336       H  0.11940677  0.76771808  0.71675119     0.11300
C2337       C  0.25517171  0.50089679  0.67388234    -0.03300
C2338       C  0.26570573  0.51424485  0.66350502    -0.05900
C2339       C  0.26615885  0.51363779  0.64375041    -0.21000
C2340       C  0.25640094  0.49950419  0.63393223     0.24700
C2341       C  0.24573627  0.48618713  0.64425035    -0.18600
C2342       C  0.24509791  0.48691777  0.66402584    -0.08500
C2343       C  0.25684318  0.49979150  0.61295421    -0.18800
C2344       C  0.25455900  0.48430448  0.60211504    -0.23600
C2345       C  0.25442921  0.48532424  0.58111478     0.26800
C2346       C  0.26019614  0.46966036  0.57036366    -0.20400
C2347       C  0.26003026  0.47040665  0.55053909    -0.10000
C2348       C  0.25393576  0.48684600  0.54099468    -0.10600
C2349       C  0.24774341  0.50227834  0.55197994    -0.03500
C2350       C  0.24795170  0.50152950  0.57167159    -0.18600
H2351       H  0.27350547  0.52526708  0.67063784     0.10500
H2352       H  0.27426940  0.52420271  0.63609333     0.10500
H2353       H  0.23757570  0.47545467  0.63710591     0.10200
H2354       H  0.23674772  0.47648438  0.67159297     0.11300
H2355       H  0.25994789  0.51328144  0.60622844     0.11400
H2356       H  0.25341587  0.47045325  0.60871249     0.13300
H2357       H  0.26493374  0.45684989  0.57731904     0.09800
H2358       H  0.26440592  0.45794053  0.54282855     0.11900
H2359       H  0.24269055  0.51517278  0.54568275     0.08500
H2360       H  0.24267450  0.51362794  0.57944453     0.11300
C2361       C  0.26127838  0.57579859  0.75056201    -0.03300
C2362       C  0.27305040  0.58514151  0.73742845    -0.05900
C2363       C  0.27552735  0.60474327  0.73829479    -0.21000
C2364       C  0.26623202  0.61548240  0.75220005     0.24700
C2365       C  0.25482190  0.60609835  0.76565213    -0.18600
C2366       C  0.25230838  0.58649416  0.76476705    -0.08500
C2367       C  0.26875733  0.63636881  0.75215507    -0.18800
C2368       C  0.25586719  0.64838281  0.75944903    -0.23600
C2369       C  0.25726271  0.66927154  0.75764357     0.26800
C2370       C  0.24052572  0.67990616  0.75785989    -0.20400
C2371       C  0.24102662  0.69950094  0.75538797    -0.10000
C2372       C  0.25829120  0.70887560  0.75297410    -0.10600
C2373       C  0.27514139  0.69845510  0.75349036    -0.03500
C2374       C  0.27466164  0.67877068  0.75574611    -0.18600
H2375       H  0.28028855  0.57733170  0.72637922     0.10500
H2376       H  0.28452025  0.61158428  0.72786642     0.10500
H2377       H  0.24795429  0.61375720  0.77700887     0.10200
H2378       H  0.24340296  0.57970875  0.77529594     0.11300
H2379       H  0.28084390  0.64199901  0.74446591     0.11400
H2380       H  0.24289761  0.64279044  0.76551746     0.13300
H2381       H  0.22697415  0.67298054  0.75957630     0.09800
H2382       H  0.22792747  0.70735499  0.75552479     0.11900
H2383       H  0.28861936  0.70550903  0.75174115     0.08500
H2384       H  0.28788301  0.67110977  0.75609131     0.11300
C2385       C  0.25515782  0.66690993  0.48996055    -0.03300
C2386       C  0.24417121  0.65712095  0.47669847    -0.05900
C2387       C  0.24531255  0.63744732  0.47520205    -0.21000
C2388       C  0.25733782  0.62702554  0.48697383     0.24700
C2389       C  0.26857004  0.63680412  0.50008790    -0.18600
C2390       C  0.26742278  0.65652370  0.50159681    -0.08500
C2391       C  0.25780884  0.60608330  0.48492004    -0.18800
C2392       C  0.26348595  0.59423999  0.49870941    -0.23600
C2393       C  0.26227378  0.57329577  0.49725024     0.26800
C2394       C  0.26109810  0.56267794  0.51400367    -0.20400
C2395       C  0.25911740  0.54304334  0.51339064    -0.10000
C2396       C  0.25840801  0.53354657  0.49602520    -0.10600
C2397       C  0.26037411  0.54400144  0.47920645    -0.03500
C2398       C  0.26228248  0.56371561  0.47978383    -0.18600
H2399       H  0.23463940  0.66465191  0.46743090     0.10500
H2400       H  0.23660545  0.63031554  0.46489674     0.10500
H2401       H  0.27847065  0.62939759  0.50901898     0.10200
H2402       H  0.27624604  0.66363718  0.51180267     0.11300
H2403       H  0.25192765  0.60025621  0.47205655     0.11400
H2404       H  0.26774442  0.59998092  0.51224062     0.13300
H2405       H  0.26141949  0.56963016  0.52764339     0.09800
H2406       H  0.25839703  0.53528482  0.52653654     0.11900
H2407       H  0.26008922  0.53696288  0.46561753     0.08500
H2408       H  0.26384612  0.57131510  0.46656535     0.11300
C2409       C  0.26404645  0.74663279  0.70098544    -0.03300
C2410       C  0.26278191  0.72825135  0.69356814    -0.05900
C2411       C  0.26303858  0.72529115  0.67402894    -0.21000
C2412       C  0.26429401  0.74064725  0.66147655     0.24700
C2413       C  0.26621694  0.75902952  0.66890719    -0.18600
C2414       C  0.26611870  0.76197185  0.68849370    -0.08500
C2415       C  0.26363440  0.73695428  0.64079109    -0.18800
C2416       C  0.25677570  0.74960446  0.62833027    -0.23600
C2417       C  0.25503600  0.74593955  0.60771453     0.26800
C2418       C  0.24188283  0.75655573  0.59742899    -0.20400
C2419       C  0.24010242  0.75415521  0.57792917    -0.10000
C2420       C  0.25163156  0.74120265  0.56814074    -0.10600
C2421       C  0.26482336  0.73049906  0.57841730    -0.03500
C2422       C  0.26651540  0.73282192  0.59801308    -0.18600
H2423       H  0.26149922  0.71612886  0.70289799     0.10500
H2424       H  0.26180712  0.71098602  0.66869520     0.10500
H2425       H  0.26782189  0.77115820  0.65966322     0.10200
H2426       H  0.26708566  0.77627975  0.69385409     0.11300
H2427       H  0.26760852  0.72292413  0.63596681     0.11400
H2428       H  0.25111053  0.76290477  0.63354714     0.13300
H2429       H  0.23295826  0.76683344  0.60451418     0.09800
H2430       H  0.22991360  0.76276967  0.57047305     0.11900
H2431       H  0.27405786  0.72054402  0.57128276     0.08500
H2432       H  0.27716415  0.72472315  0.60535680     0.11300
C2433       C  0.17661688  0.73665054  0.48927767    -0.03300
C2434       C  0.16851012  0.72386077  0.47646986    -0.05900
C2435       C  0.14895330  0.72307810  0.47422009    -0.21000
C2436       C  0.13704512  0.73522545  0.48447113     0.24700
C2437       C  0.14508344  0.74794670  0.49741224    -0.18600
C2438       C  0.16467291  0.74864462  0.49977529    -0.08500
C2439       C  0.11632454  0.73366913  0.48183581    -0.18800
C2440       C  0.10428540  0.74817271  0.48468448    -0.23600
C2441       C  0.08349229  0.74654188  0.48237249     0.26800
C2442       C  0.07283349  0.76303146  0.47931562    -0.20400
C2443       C  0.05312335  0.76220490  0.47818138    -0.10000
C2444       C  0.04368379  0.74486296  0.48035099    -0.10600
C2445       C  0.05433771  0.72832760  0.48308315    -0.03500
C2446       C  0.07400149  0.72912623  0.48414646    -0.18600
H2447       H  0.17727258  0.71439462  0.46816462     0.10500
H2448       H  0.14310522  0.71304014  0.46429637     0.10500
H2449       H  0.13629980  0.75713462  0.50597664     0.10200
H2450       H  0.17045490  0.75861799  0.50979035     0.11300
H2451       H  0.11103045  0.72032895  0.47646788     0.11400
H2452       H  0.10986404  0.76200891  0.48825505     0.13300
H2453       H  0.07977201  0.77663970  0.47804552     0.09800
H2454       H  0.04524331  0.77520518  0.47632193     0.11900
H2455       H  0.04743826  0.71473326  0.48464960     0.08500
H2456       H  0.08157338  0.71614661  0.48698598     0.11300
C2457       C  0.49993229  0.79236576  0.50105654    -0.03300
C2458       C  0.49295784  0.80282384  0.48563873    -0.05900
C2459       C  0.49270166  0.82255526  0.48590620    -0.21000
C2460       C  0.49930090  0.83258939  0.50158534     0.24700
C2461       C  0.50586823  0.82227798  0.51730684    -0.18600
C2462       C  0.50619111  0.80243866  0.51701026    -0.08500
C2463       C  0.49850167  0.85366175  0.50083794    -0.18800
C2464       C  0.50683139  0.86527945  0.51334968    -0.23600
C2465       C  0.50582021  0.88632921  0.51222644     0.26800
C2466       C  0.51888109  0.89697515  0.52255553    -0.20400
C2467       C  0.51827196  0.91674061  0.52234108    -0.10000
C2468       C  0.50449920  0.92640155  0.51181018    -0.10600
C2469       C  0.49140848  0.91579841  0.50144174    -0.03500
C2470       C  0.49196068  0.89600139  0.50172388    -0.18600
H2471       H  0.48782339  0.79604776  0.47307140     0.10500
H2472       H  0.48736397  0.83003344  0.47365543     0.10500
H2473       H  0.51054314  0.82929256  0.52999409     0.10200
H2474       H  0.51110357  0.79509077  0.52947281     0.11300
H2475       H  0.49116477  0.85976396  0.48888344     0.11400
H2476       H  0.51534266  0.85934806  0.52457463     0.13300
H2477       H  0.52963059  0.88996742  0.53085523     0.09800
H2478       H  0.52859966  0.92444432  0.53050370     0.11900
H2479       H  0.48054035  0.92279068  0.49329950     0.08500
H2480       H  0.48121041  0.88848617  0.49401657     0.11300
C2481       C  0.52515950  0.72719617  0.51944345    -0.03300
C2482       C  0.54443405  0.73199993  0.51844796    -0.05900
C2483       C  0.55794585  0.72177076  0.52856703    -0.21000
C2484       C  0.55272605  0.70616697  0.53976913     0.24700
C2485       C  0.53352902  0.70111664  0.54067621    -0.18600
C2486       C  0.51996976  0.71141207  0.53062196    -0.08500
C2487       C  0.56764462  0.69620444  0.55082919    -0.18800
C2488       C  0.56586400  0.67856236  0.55810820    -0.23600
C2489       C  0.58060481  0.66884404  0.56971384     0.26800
C2490       C  0.57567608  0.65221915  0.57959888    -0.20400
C2491       C  0.58879359  0.64287891  0.59109966    -0.10000
C2492       C  0.60715350  0.65001280  0.59306630    -0.10600
C2493       C  0.61229275  0.66631419  0.58282583    -0.03500
C2494       C  0.59927393  0.67555672  0.57121352    -0.18600
H2495       H  0.54905631  0.74382506  0.50980172     0.10500
H2496       H  0.57260281  0.72606296  0.52757880     0.10500
H2497       H  0.52874529  0.68945231  0.54939044     0.10200
H2498       H  0.50558087  0.70659554  0.53169992     0.11300
H2499       H  0.58060665  0.70400828  0.55291264     0.11400
H2500       H  0.55290814  0.67078026  0.55576056     0.13300
H2501       H  0.56149052  0.64658946  0.57868211     0.09800
H2502       H  0.58438254  0.63042971  0.59892857     0.11900
H2503       H  0.62647437  0.67193722  0.58377522     0.08500
H2504       H  0.60409561  0.68785843  0.56349214     0.11300
C2505       C  0.50251509  0.73983160  0.32128760    -0.03300
C2506       C  0.49138033  0.72638512  0.33091690    -0.05900
C2507       C  0.49202164  0.72491976  0.35062082    -0.21000
C2508       C  0.50365185  0.73693551  0.36116359     0.24700
C2509       C  0.51513446  0.75010655  0.35151449    -0.18600
C2510       C  0.51449541  0.75157871  0.33181005    -0.08500
C2511       C  0.50349855  0.73517834  0.38211582    -0.18800
C2512       C  0.50836065  0.74942759  0.39372252    -0.23600
C2513       C  0.50709713  0.74825347  0.41467976     0.26800
C2514       C  0.50598916  0.76515719  0.42500963    -0.20400
C2515       C  0.50463625  0.76480214  0.44472185    -0.10000
C2516       C  0.50455222  0.74754772  0.45453568    -0.10600
C2517       C  0.50607210  0.73060662  0.44432610    -0.03500
C2518       C  0.50733147  0.73091812  0.42456876    -0.18600
H2519       H  0.48211718  0.71699324  0.32324506     0.10500
H2520       H  0.48319419  0.71451701  0.35767865     0.10500
H2521       H  0.52481479  0.75915414  0.35903465     0.10200
H2522       H  0.52345431  0.76190498  0.32482248     0.11300
H2523       H  0.49791499  0.72214636  0.38806226     0.11400
H2524       H  0.51225557  0.76303575  0.38771828     0.13300
H2525       H  0.50607781  0.77870496  0.41779323     0.09800
H2526       H  0.50410698  0.77803904  0.45228801     0.11900
H2527       H  0.50614835  0.71712066  0.45164459     0.08500
H2528       H  0.50877114  0.71759265  0.41721285     0.11300
C2529       C  0.45738335  0.74297420  0.49960981    -0.03300
C2530       C  0.44887186  0.72512866  0.50168477    -0.05900
C2531       C  0.42922100  0.72337777  0.50177487    -0.21000
C2532       C  0.41767071  0.73937766  0.49967110     0.24700
C2533       C  0.42620405  0.75730137  0.49796515    -0.18600
C2534       C  0.44586189  0.75903781  0.49782415    -0.08500
C2535       C  0.39684922  0.73685731  0.49990486    -0.18800
C2536       C  0.38481527  0.74926644  0.49193512    -0.23600
C2537       C  0.36393229  0.74706876  0.49225207     0.26800
C2538       C  0.35314504  0.75785094  0.47958283    -0.20400
C2539       C  0.33343108  0.75680294  0.47983117    -0.10000
C2540       C  0.32405740  0.74493029  0.49281559    -0.10600
C2541       C  0.33483936  0.73408604  0.50546027    -0.03500
C2542       C  0.35452359  0.73521324  0.50528648    -0.18600
H2543       H  0.45740642  0.71247526  0.50294764     0.10500
H2544       H  0.42301791  0.70943741  0.50328216     0.10500
H2545       H  0.41781586  0.77006233  0.49708694     0.10200
H2546       H  0.45203741  0.77301540  0.49668715     0.11300
H2547       H  0.39148350  0.72386005  0.50610236     0.11400
H2548       H  0.39044040  0.76134161  0.48423724     0.13300
H2549       H  0.36000041  0.76718664  0.46947596     0.09800
H2550       H  0.32554649  0.76532745  0.46988121     0.11900
H2551       H  0.32805546  0.72491851  0.51575967     0.08500
H2552       H  0.36215133  0.72709597  0.51571142     0.11300
C2553       C  0.10122509  0.59441566  0.13609698    -0.03300
C2554       C  0.08613515  0.58455012  0.12791227    -0.05900
C2555       C  0.07565475  0.57146873  0.13841980    -0.21000
C2556       C  0.07989011  0.56776884  0.15743910     0.24700
C2557       C  0.09559230  0.57700098  0.16546262    -0.18600
C2558       C  0.10619895  0.59013119  0.15481807    -0.08500
C2559       C  0.06696579  0.55476526  0.16811838    -0.18800
C2560       C  0.06843263  0.55012674  0.18658587    -0.23600
C2561       C  0.05436188  0.53782847  0.19655006     0.26800
C2562       C  0.06008770  0.52693491  0.21209691    -0.20400
C2563       C  0.04717166  0.51542020  0.22186791    -0.10000
C2564       C  0.02797058  0.51486397  0.21676521    -0.10600
C2565       C  0.02230754  0.52584769  0.20109251    -0.03500
C2566       C  0.03527437  0.53719760  0.19121659    -0.18600
H2567       H  0.08221110  0.58714217  0.11335585     0.10500
H2568       H  0.06385613  0.56449905  0.13170217     0.10500
H2569       H  0.09957672  0.57455074  0.17997846     0.10200
H2570       H  0.11777929  0.59748265  0.16147214     0.11300
H2571       H  0.05538480  0.54874593  0.16016156     0.11400
H2572       H  0.08039030  0.55497270  0.19471103     0.13300
H2573       H  0.07467220  0.52718188  0.21659279     0.09800
H2574       H  0.05216909  0.50700674  0.23364153     0.11900
H2575       H  0.00799800  0.52576276  0.19604858     0.08500
H2576       H  0.03015651  0.54572219  0.17959775     0.11300
C2577       C  0.29310055  0.73821085  0.24094760    -0.03300
C2578       C  0.30234397  0.73443239  0.22365967    -0.05900
C2579       C  0.32205733  0.73549518  0.22223672    -0.21000
C2580       C  0.33294185  0.74003650  0.23809433     0.24700
C2581       C  0.32370412  0.74393297  0.25531443    -0.18600
C2582       C  0.30407334  0.74302770  0.25666260    -0.08500
C2583       C  0.35380662  0.74135855  0.23626819    -0.18800
C2584       C  0.36540621  0.73726634  0.25073065    -0.23600
C2585       C  0.38627247  0.73901988  0.24966019     0.26800
C2586       C  0.39729243  0.72778015  0.26166861    -0.20400
C2587       C  0.41694998  0.72944168  0.26161972    -0.10000
C2588       C  0.42606229  0.74261577  0.24971524    -0.10600
C2589       C  0.41499362  0.75407486  0.23785361    -0.03500
C2590       C  0.39530147  0.75228745  0.23779641    -0.18600
H2591       H  0.29433818  0.73113040  0.21111219     0.10500
H2592       H  0.32883642  0.73270563  0.20872922     0.10500
H2593       H  0.33158534  0.74807388  0.26768135     0.10200
H2594       H  0.29756944  0.74611143  0.27018147     0.11300
H2595       H  0.35970390  0.74506755  0.22252300     0.11400
H2596       H  0.35943990  0.73168610  0.26380607     0.13300
H2597       H  0.39066109  0.71758735  0.27107157     0.09800
H2598       H  0.42500059  0.72039066  0.27095495     0.11900
H2599       H  0.42154442  0.76439984  0.22855668     0.08500
H2600       H  0.38719874  0.76156582  0.22875404     0.11300
C2601       C  0.24543755  0.74153388  0.28745176    -0.03300
C2602       C  0.22791151  0.73919284  0.29666135    -0.05900
C2603       C  0.22653805  0.74045571  0.31635736    -0.21000
C2604       C  0.24256489  0.74422886  0.32726261     0.24700
C2605       C  0.26008063  0.74656506  0.31805684    -0.18600
C2606       C  0.26140766  0.74531647  0.29841668    -0.08500
C2607       C  0.24072847  0.74433673  0.34817797    -0.18800
C2608       C  0.25344089  0.75236706  0.35974010    -0.23600
C2609       C  0.25232733  0.75074831  0.38063462     0.26800
C2610       C  0.26134964  0.76435194  0.39182210    -0.20400
C2611       C  0.26110966  0.76280831  0.41155364    -0.10000
C2612       C  0.25195199  0.74750161  0.42044145    -0.10600
C2613       C  0.24307222  0.73381721  0.40920264    -0.03500
C2614       C  0.24333815  0.73534816  0.38954269    -0.18600
H2615       H  0.21520972  0.73658586  0.28866440     0.10500
H2616       H  0.21288746  0.73846368  0.32311116     0.10500
H2617       H  0.27290949  0.74879265  0.32591838     0.10200
H2618       H  0.27517967  0.74687339  0.29192707     0.11300
H2619       H  0.22824619  0.73766497  0.35419991     0.11400
H2620       H  0.26492590  0.76071580  0.35384579     0.13300
H2621       H  0.26857480  0.77621600  0.38527254     0.09800
H2622       H  0.26811720  0.77356585  0.41982188     0.11900
H2623       H  0.23607163  0.72173445  0.41557876     0.08500
H2624       H  0.23687524  0.72416856  0.38142342     0.11300
C2625       C  0.25010819  0.78399348  0.23863958    -0.03300
C2626       C  0.26803531  0.79242069  0.23832770    -0.05900
C2627       C  0.26989743  0.81205448  0.23754025    -0.21000
C2628       C  0.25389345  0.82373463  0.23740359     0.24700
C2629       C  0.23585851  0.81530477  0.23729978    -0.18600
C2630       C  0.23400307  0.79554566  0.23780802    -0.08500
C2631       C  0.25673747  0.84456226  0.23718279    -0.18800
C2632       C  0.24438999  0.85689051  0.24485141    -0.23600
C2633       C  0.24816866  0.87755518  0.24612392     0.26800
C2634       C  0.23946363  0.88792921  0.26066155    -0.20400
C2635       C  0.24256836  0.90737911  0.26237225    -0.10000
C2636       C  0.25439034  0.91697784  0.24947578    -0.10600
C2637       C  0.26306186  0.90661811  0.23482698    -0.03500
C2638       C  0.25993592  0.88713074  0.23311117    -0.18600
H2639       H  0.28067104  0.78378199  0.23869852     0.10500
H2640       H  0.28392486  0.81816414  0.23742650     0.10500
H2641       H  0.22321990  0.82388964  0.23670729     0.10200
H2642       H  0.22003589  0.78931347  0.23804162     0.11300
H2643       H  0.27025219  0.84970626  0.23196802     0.11400
H2644       H  0.23170787  0.85155625  0.25175055     0.13300
H2645       H  0.23028535  0.88093088  0.27081797     0.09800
H2646       H  0.23560510  0.91491642  0.27378115     0.11900
H2647       H  0.27199110  0.91362527  0.22446438     0.08500
H2648       H  0.26644449  0.87973551  0.22136832     0.11300
C2649       C  0.14726771  0.64398149  0.14352666    -0.03300
C2650       C  0.15079387  0.63544166  0.16109619    -0.05900
C2651       C  0.16264607  0.64429304  0.17424576    -0.21000
C2652       C  0.17139160  0.66171520  0.17001674     0.24700
C2653       C  0.16803413  0.67002238  0.15225131    -0.18600
C2654       C  0.15635270  0.66117955  0.13918118    -0.08500
C2655       C  0.18308180  0.67126021  0.18470481    -0.18800
C2656       C  0.19543472  0.68535555  0.18078266    -0.23600
C2657       C  0.20644432  0.69607849  0.19515075     0.26800
C2658       C  0.22078297  0.70828590  0.18876531    -0.20400
C2659       C  0.23108698  0.71923485  0.20148080    -0.10000
C2660       C  0.22748337  0.71832883  0.22107387    -0.10600
C2661       C  0.21297617  0.70612738  0.22746405    -0.03500
C2662       C  0.20258654  0.69522349  0.21469327    -0.18600
H2663       H  0.14401325  0.62222774  0.16487862     0.10500
H2664       H  0.16485034  0.63759264  0.18785062     0.10500
H2665       H  0.17392421  0.68360247  0.14838955     0.10200
H2666       H  0.15438125  0.66798191  0.12559862     0.11300
H2667       H  0.18148196  0.66622004  0.19911810     0.11400
H2668       H  0.19802438  0.68925300  0.16615487     0.13300
H2669       H  0.22401245  0.70944846  0.17379972     0.09800
H2670       H  0.24201115  0.72850563  0.19597838     0.11900
H2671       H  0.20918840  0.70491294  0.24219654     0.08500
H2672       H  0.19135697  0.68646654  0.22029913     0.11300
C2673       C  0.29549480  0.49980301  0.99856183    -0.03300
C2674       C  0.30402804  0.49967462  0.98059642    -0.05900
C2675       C  0.32363956  0.49936456  0.97865712    -0.21000
C2676       C  0.33523830  0.49905837  0.99463928     0.24700
C2677       C  0.32672448  0.49960753  0.01273073    -0.18600
C2678       C  0.30701055  0.49998482  0.01464685    -0.08500
C2679       C  0.35605404  0.49880971  0.99167065    -0.18800
C2680       C  0.36843475  0.49264464  0.00468172    -0.23600
C2681       C  0.38924622  0.49221392  0.00149219     0.26800
C2682       C  0.40028259  0.48039227  0.01294111    -0.20400
C2683       C  0.41994029  0.48006149  0.01098818    -0.10000
C2684       C  0.42908481  0.49167745  0.99758145    -0.10600
C2685       C  0.41804298  0.50340381  0.98597665    -0.03500
C2686       C  0.39837065  0.50375052  0.98794792    -0.18600
H2687       H  0.29554733  0.50009080  0.96798140     0.10500
H2688       H  0.32977834  0.49925572  0.96456846     0.10500
H2689       H  0.33515932  0.49998209  0.02540953     0.10200
H2690       H  0.30077015  0.50010841  0.02868264     0.11300
H2691       H  0.36117965  0.50295285  0.97776624     0.11400
H2692       H  0.36317698  0.48688929  0.01795851     0.13300
H2693       H  0.39367068  0.47143260  0.02354026     0.09800
H2694       H  0.42798499  0.47088176  0.02020182     0.11900
H2695       H  0.42462291  0.51265638  0.97562285     0.08500
H2696       H  0.39052134  0.51349083  0.97919337     0.11300
C2697       C  0.24622656  0.50139660  0.95679033    -0.03300
C2698       C  0.23047751  0.51030477  0.94849930    -0.05900
C2699       C  0.22886856  0.51169421  0.92877958    -0.21000
C2700       C  0.24274385  0.50398107  0.91678888     0.24700
C2701       C  0.25844628  0.49512783  0.92498073    -0.18600
C2702       C  0.26008661  0.49377388  0.94458218    -0.08500
C2703       C  0.24094991  0.50611587  0.89589353    -0.18800
C2704       C  0.24949707  0.49431363  0.88349201    -0.23600
C2705       C  0.24933758  0.49636286  0.86247460     0.26800
C2706       C  0.25986839  0.48333244  0.85172150    -0.20400
C2707       C  0.26065933  0.48462707  0.83200120    -0.10000
C2708       C  0.25084100  0.49898659  0.82243986    -0.10600
C2709       C  0.24022757  0.51203538  0.83312836    -0.03500
C2710       C  0.23948847  0.51078983  0.85290526    -0.18600
H2711       H  0.21921019  0.51611758  0.95708371     0.10500
H2712       H  0.21665378  0.51871794  0.92286458     0.10500
H2713       H  0.26987584  0.48963426  0.91637278     0.10200
H2714       H  0.27260033  0.48697716  0.94980258     0.11300
H2715       H  0.23223060  0.51764783  0.89088219     0.11400
H2716       H  0.25724310  0.48226755  0.88897734     0.13300
H2717       H  0.26764460  0.47208818  0.85862014     0.09800
H2718       H  0.26895473  0.47431239  0.82425136     0.11900
H2719       H  0.23250816  0.52329774  0.82621238     0.08500
H2720       H  0.23118585  0.52119178  0.86042618     0.11300
C2721       C  0.15364059  0.60074669  0.09705405    -0.03300
C2722       C  0.16794083  0.60884869  0.08584822    -0.05900
C2723       C  0.18156778  0.59746592  0.07715178    -0.21000
C2724       C  0.18089513  0.57771027  0.07904203     0.24700
C2725       C  0.16688452  0.56958541  0.09076813    -0.18600
C2726       C  0.15343567  0.58108246  0.09984571    -0.08500
C2727       C  0.19505052  0.56622064  0.06850294    -0.18800
C2728       C  0.19144024  0.54883406  0.06160994    -0.23600
C2729       C  0.20502164  0.53827195  0.04934283     0.26800
C2730       C  0.19810918  0.52474099  0.03667965    -0.20400
C2731       C  0.21041321  0.51482595  0.02469081    -0.10000
C2732       C  0.23006619  0.51791571  0.02517983    -0.10600
C2733       C  0.23695432  0.53135151  0.03814520    -0.03500
C2734       C  0.22462313  0.54131923  0.05006359    -0.18600
H2735       H  0.16837891  0.62401734  0.08360934     0.10500
H2736       H  0.19232051  0.60408387  0.06838928     0.10500
H2737       H  0.16628102  0.55442408  0.09290096     0.10200
H2738       H  0.14247406  0.57459907  0.10844296     0.11300
H2739       H  0.20822352  0.57316947  0.06476052     0.11400
H2740       H  0.17752588  0.54271472  0.06379477     0.13300
H2741       H  0.18308889  0.52200552  0.03586389     0.09800
H2742       H  0.20455580  0.50463845  0.01493019     0.11900
H2743       H  0.25176921  0.53446624  0.03935618     0.08500
H2744       H  0.23059864  0.55122071  0.06000563     0.11300
C2745       C  0.26290210  0.32076840  0.00302451    -0.03300
C2746       C  0.27533860  0.33010132  0.01530249    -0.05900
C2747       C  0.27461757  0.34979363  0.01727864    -0.21000
C2748       C  0.26159886  0.36053756  0.00692259     0.24700
C2749       C  0.24919465  0.35117947  0.99463018    -0.18600
C2750       C  0.24993584  0.33157028  0.99262475    -0.08500
C2751       C  0.26074092  0.38134602  0.00969110    -0.18800
C2752       C  0.25444105  0.39316180  0.99617378    -0.23600
C2753       C  0.25307861  0.41398103  0.99832308     0.26800
C2754       C  0.25249099  0.42505027  0.98185712    -0.20400
C2755       C  0.25117410  0.44468440  0.98297065    -0.10000
C2756       C  0.25031378  0.45372193  0.00060499    -0.10600
C2757       C  0.25024093  0.44269204  0.01716454    -0.03500
C2758       C  0.25163464  0.42294924  0.01605681    -0.18600
H2759       H  0.28546881  0.32218539  0.02356061     0.10500
H2760       H  0.28423318  0.35665490  0.02693205     0.10500
H2761       H  0.23850185  0.35884068  0.98689781     0.10200
H2762       H  0.24001968  0.32484375  0.98319306     0.11300
H2763       H  0.26612213  0.38701369  0.02284729     0.11400
H2764       H  0.25089139  0.38747397  0.98240076     0.13300
H2765       H  0.25324909  0.41848664  0.96803276     0.09800
H2766       H  0.25081208  0.45280788  0.96996439     0.11900
H2767       H  0.24957116  0.44934357  0.03093960     0.08500
H2768       H  0.25142447  0.41483348  0.02905002     0.11300
C2769       C  0.00169894  0.78674639  0.98611796    -0.03300
C2770       C  0.99899162  0.79576566  0.96865047    -0.05900
C2771       C  0.99922470  0.81544323  0.96736796    -0.21000
C2772       C  0.00194275  0.82652729  0.98353012     0.24700
C2773       C  0.00478748  0.81752068  0.00107442    -0.18600
C2774       C  0.00470070  0.79775835  0.00232776    -0.08500
C2775       C  0.00244051  0.84735349  0.98126339    -0.18800
C2776       C  0.99812957  0.85951842  0.99523486    -0.23600
C2777       C  0.99819203  0.88029873  0.99236052     0.26800
C2778       C  0.98623617  0.89155311  0.00352488    -0.20400
C2779       C  0.98595632  0.91118192  0.00119826    -0.10000
C2780       C  0.99783433  0.91997505  0.98778472    -0.10600
C2781       C  0.00994769  0.90870299  0.97672178    -0.03500
C2782       C  0.01017689  0.88907850  0.97901433    -0.18600
H2783       H  0.99704848  0.78760245  0.95586607     0.10500
H2784       H  0.99722700  0.82204651  0.95367658     0.10500
H2785       H  0.00743597  0.82562331  0.01374501     0.10200
H2786       H  0.00682370  0.79109221  0.01596121     0.11300
H2787       H  0.00539189  0.85278745  0.96716563     0.11400
H2788       H  0.99329182  0.85416300  0.00884151     0.13300
H2789       H  0.97699362  0.88512236  0.01399537     0.09800
H2790       H  0.97656047  0.91947118  0.01005675     0.11900
H2791       H  0.01942489  0.91504743  0.96641860     0.08500
H2792       H  0.02003728  0.88090964  0.97058605     0.11300
C2793       C  0.00132417  0.74182244  0.94237067    -0.03300
C2794       C  0.98440543  0.74396115  0.93241030    -0.05900
C2795       C  0.98451577  0.74583578  0.91275422    -0.21000
C2796       C  0.00155003  0.74563808  0.90250608     0.24700
C2797       C  0.01859752  0.74356131  0.91248501    -0.18600
C2798       C  0.01844054  0.74157058  0.93220018    -0.08500
C2799       C  0.00071213  0.74800986  0.88159031    -0.18800
C2800       C  0.01515244  0.74416029  0.86971634    -0.23600
C2801       C  0.01362499  0.74546305  0.84880358     0.26800
C2802       C  0.02573964  0.73429814  0.83773955    -0.20400
C2803       C  0.02455282  0.73456318  0.81806183    -0.10000
C2804       C  0.01131666  0.74619362  0.80889706    -0.10600
C2805       C  0.99950555  0.75782689  0.81992009    -0.03500
C2806       C  0.00065233  0.75749792  0.83969819    -0.18600
H2807       H  0.97100735  0.74409329  0.93975594     0.10500
H2808       H  0.97117819  0.74745311  0.90551887     0.10500
H2809       H  0.03212874  0.74388615  0.90533682     0.10200
H2810       H  0.03176193  0.74043527  0.93953133     0.11300
H2811       H  0.98721202  0.75216734  0.87571886     0.11400
H2812       H  0.02822719  0.73850297  0.87524408     0.13300
H2813       H  0.03597911  0.72506200  0.84436284     0.09800
H2814       H  0.03400633  0.72552980  0.81003570     0.11900
H2815       H  0.98930696  0.76708462  0.81328475     0.08500
H2816       H  0.99150332  0.76679973  0.84772961     0.11300
C2817       C  0.02455896  0.72305725  0.00878524    -0.03300
C2818       C  0.02317154  0.72672344  0.02832659    -0.05900
C2819       C  0.03459848  0.71725709  0.04124948    -0.21000
C2820       C  0.04757404  0.70359230  0.03510543     0.24700
C2821       C  0.04915255  0.69984059  0.01561333    -0.18600
C2822       C  0.03776391  0.70942122  0.00260334    -0.08500
C2823       C  0.05950026  0.69402323  0.04944230    -0.18800
C2824       C  0.06720504  0.67677120  0.04693484    -0.23600
C2825       C  0.07870316  0.66703442  0.06154680     0.26800
C2826       C  0.08048447  0.64729821  0.06081061    -0.20400
C2827       C  0.09132165  0.63762300  0.07413709    -0.10000
C2828       C  0.10088934  0.64740063  0.08851921    -0.10600
C2829       C  0.09916620  0.66728684  0.08910860    -0.03500
C2830       C  0.08829205  0.67694657  0.07577415    -0.18600
H2831       H  0.01314851  0.73706155  0.03361584     0.10500
H2832       H  0.03315939  0.72051770  0.05616211     0.10500
H2833       H  0.05937326  0.68975693  0.01028150     0.10200
H2834       H  0.03950625  0.70590928  0.98786784     0.11300
H2835       H  0.06097719  0.70107352  0.06296924     0.11400
H2836       H  0.06420325  0.66896398  0.03410085     0.13300
H2837       H  0.07337183  0.63929601  0.04992807     0.09800
H2838       H  0.09231703  0.62235328  0.07319423     0.11900
H2839       H  0.10611735  0.67574887  0.09960000     0.08500
H2840       H  0.08779676  0.69222399  0.07650396     0.11300
C2841       C  0.11345044  0.14902240  0.59546667    -0.03300
C2842       C  0.12067755  0.16459126  0.58537398    -0.05900
C2843       C  0.10944641  0.17440512  0.57251936    -0.21000
C2844       C  0.09066881  0.16898286  0.56939151     0.24700
C2845       C  0.08356954  0.15295780  0.57906660    -0.18600
C2846       C  0.09496030  0.14298225  0.59187496    -0.08500
C2847       C  0.07895212  0.18128770  0.55692354    -0.18800
C2848       C  0.06175149  0.17677062  0.55024332    -0.23600
C2849       C  0.05030027  0.19008279  0.53859385     0.26800
C2850       C  0.03684929  0.18281357  0.52611051    -0.20400
C2851       C  0.02570421  0.19496267  0.51519134    -0.10000
C2852       C  0.02755438  0.21478346  0.51651541    -0.10600
C2853       C  0.04084977  0.22200687  0.52937885    -0.03500
C2854       C  0.05200297  0.20984571  0.54025472    -0.18600
H2855       H  0.13502041  0.16935095  0.58762183     0.10500
H2856       H  0.11537771  0.18657827  0.56526434     0.10500
H2857       H  0.06912789  0.14839945  0.57734750     0.10200
H2858       H  0.08907916  0.13105453  0.59955551     0.11300
H2859       H  0.08507203  0.19479800  0.55286605     0.11400
H2860       H  0.05601244  0.16276083  0.55275979     0.13300
H2861       H  0.03502869  0.16766172  0.52470786     0.09800
H2862       H  0.01551195  0.18885368  0.50563197     0.11900
H2863       H  0.04275141  0.23696308  0.53150479     0.08500
H2864       H  0.06164850  0.21605699  0.55027346     0.11300
C2865       C  0.29530874  0.99528174  0.50491831    -0.03300
C2866       C  0.30624298  0.99075370  0.48889015    -0.05900
C2867       C  0.32590323  0.99019691  0.48974591    -0.21000
C2868       C  0.33534049  0.99418813  0.50662594     0.24700
C2869       C  0.32451042  0.99869465  0.52281236    -0.18600
C2870       C  0.30472856  0.99926598  0.52193072    -0.08500
C2871       C  0.35635607  0.99293480  0.50652920    -0.18800
C2872       C  0.36762141  0.99997688  0.52008063    -0.23600
C2873       C  0.38862516  0.99926065  0.51881296     0.26800
C2874       C  0.39916375  0.01299918  0.52836743    -0.20400
C2875       C  0.41888282  0.01313786  0.52715443    -0.10000
C2876       C  0.42858814  0.99942057  0.51643223    -0.10600
C2877       C  0.41807100  0.98537857  0.50721010    -0.03500
C2878       C  0.39832741  0.98522561  0.50845534    -0.18600
H2879       H  0.29977939  0.98767968  0.47551693     0.10500
H2880       H  0.33379794  0.98661921  0.47705529     0.10500
H2881       H  0.33110388  0.00138349  0.53627598     0.10200
H2882       H  0.29684998  0.00232018  0.53474120     0.11300
H2883       H  0.36284834  0.98669214  0.49406271     0.11400
H2884       H  0.36147493  0.00765192  0.53188098     0.13300
H2885       H  0.39209623  0.02386328  0.53657862     0.09800
H2886       H  0.42651325  0.02412197  0.53452448     0.11900
H2887       H  0.42509565  0.97443763  0.49907827     0.08500
H2888       H  0.39078681  0.97396384  0.50145770     0.11300
C2889       C  0.25681556  0.99327324  0.32561271    -0.03300
C2890       C  0.27019047  0.00424329  0.33521617    -0.05900
C2891       C  0.26989497  0.00532275  0.35490207    -0.21000
C2892       C  0.25615169  0.99564167  0.36553103     0.24700
C2893       C  0.24281373  0.98446253  0.35599930    -0.18600
C2894       C  0.24316084  0.98330756  0.33621247    -0.08500
C2895       C  0.25698009  0.99705506  0.38646478    -0.18800
C2896       C  0.24271138  0.99258048  0.39837853    -0.23600
C2897       C  0.24457456  0.99377839  0.41929904     0.26800
C2898       C  0.22830589  0.99561649  0.43064215    -0.20400
C2899       C  0.22969628  0.99632776  0.45039524    -0.10000
C2900       C  0.24740904  0.99502382  0.45917014    -0.10600
C2901       C  0.26359826  0.99323537  0.44780369    -0.03500
C2902       C  0.26224452  0.99246019  0.42816959    -0.18600
H2903       H  0.28099097  0.01199220  0.32752713     0.10500
H2904       H  0.28046804  0.01385136  0.36186808     0.10500
H2905       H  0.23231761  0.97634803  0.36368050     0.10200
H2906       H  0.23271628  0.97465310  0.32922471     0.11300
H2907       H  0.26991895  0.00279991  0.39221003     0.11400
H2908       H  0.22908677  0.98852057  0.39278410     0.13300
H2909       H  0.21449618  0.99644109  0.42420923     0.09800
H2910       H  0.21689186  0.99741219  0.45879112     0.11900
H2911       H  0.27741162  0.99241005  0.45402642     0.08500
H2912       H  0.27511223  0.99036731  0.42011851     0.11300
C2913       C  0.24587942  0.81485462  0.50012521    -0.03300
C2914       C  0.23540169  0.82305619  0.51496547    -0.05900
C2915       C  0.23476727  0.84269461  0.51712104    -0.21000
C2916       C  0.24458133  0.85458924  0.50454122     0.24700
C2917       C  0.25480280  0.84640487  0.48946500    -0.18600
C2918       C  0.25553224  0.82674588  0.48737483    -0.08500
C2919       C  0.24315821  0.87540255  0.50717083    -0.18800
C2920       C  0.25585476  0.88774654  0.50006940    -0.23600
C2921       C  0.25420902  0.90860556  0.50209301     0.26800
C2922       C  0.27045184  0.91967353  0.49941663    -0.20400
C2923       C  0.26946415  0.93938369  0.50025847    -0.10000
C2924       C  0.25214668  0.94848829  0.50363790    -0.10600
C2925       C  0.23586771  0.93746889  0.50646728    -0.03500
C2926       C  0.23684700  0.91772334  0.50563015    -0.18600
H2927       H  0.22779863  0.81429216  0.52504196     0.10500
H2928       H  0.22664362  0.84861721  0.52873443     0.10500
H2929       H  0.26198192  0.85505617  0.47902681     0.10200
H2930       H  0.26351026  0.82086657  0.47564801     0.11300
H2931       H  0.23156846  0.88056112  0.51586255     0.11400
H2932       H  0.26838577  0.88244465  0.49291711     0.13300
H2933       H  0.28398108  0.91303812  0.49662464     0.09800
H2934       H  0.28232050  0.94747432  0.49836334     0.11900
H2935       H  0.22226659  0.94411924  0.50876427     0.08500
H2936       H  0.22387955  0.90978839  0.50717672     0.11300
C2937       C  0.22881893  0.01375204  0.52563869    -0.03300
C2938       C  0.21550842  0.00644533  0.53867942    -0.05900
C2939       C  0.20413073  0.01852791  0.54945288    -0.21000
C2940       C  0.20549764  0.03821914  0.54750805     0.24700
C2941       C  0.21884823  0.04565850  0.53465031    -0.18600
C2942       C  0.23027783  0.03356727  0.52386913    -0.08500
C2943       C  0.19319656  0.05026630  0.55970072    -0.18800
C2944       C  0.18963408  0.06871091  0.55642819    -0.23600
C2945       C  0.17808904  0.08057261  0.56945079     0.26800
C2946       C  0.18197106  0.10000292  0.57044033    -0.20400
C2947       C  0.17228454  0.11149260  0.58329935    -0.10000
C2948       C  0.15822167  0.10385095  0.59514927    -0.10600
C2949       C  0.15360194  0.08464703  0.59358241    -0.03500
C2950       C  0.16350261  0.07304038  0.58088367    -0.18600
H2951       H  0.21347402  0.99149934  0.54078992     0.10500
H2952       H  0.19406744  0.01239677  0.55933228     0.10500
H2953       H  0.22083711  0.06073636  0.53302176     0.10200
H2954       H  0.24037427  0.03971717  0.51404286     0.11300
H2955       H  0.18689288  0.04351024  0.57202470     0.11400
H2956       H  0.19601080  0.07575409  0.54432973     0.13300
H2957       H  0.19293919  0.10620494  0.56164011     0.09800
H2958       H  0.17592194  0.12635439  0.58417509     0.11900
H2959       H  0.14280610  0.07850858  0.60261290     0.08500
H2960       H  0.15968520  0.05824646  0.58006984     0.11300
C2961       C  0.71073161  0.49399395  0.98761652    -0.03300
C2962       C  0.70169941  0.48962243  0.97051892    -0.05900
C2963       C  0.68197697  0.48916029  0.96952919    -0.21000
C2964       C  0.67081289  0.49315762  0.98553046     0.24700
C2965       C  0.67984782  0.49725688  0.00268619    -0.18600
C2966       C  0.69952232  0.49782379  0.00362608    -0.08500
C2967       C  0.64988937  0.49233972  0.98391884    -0.18800
C2968       C  0.63797121  0.50108208  0.99605379    -0.23600
C2969       C  0.61702864  0.50015062  0.99473105     0.26800
C2970       C  0.60619111  0.51378738  0.00433371    -0.20400
C2971       C  0.58645954  0.51318841  0.00394975    -0.10000
C2972       C  0.57707931  0.49885176  0.99398244    -0.10600
C2973       C  0.58791747  0.48514357  0.98442166    -0.03500
C2974       C  0.60764471  0.48570532  0.98486055    -0.18600
H2975       H  0.70982210  0.48690704  0.95777925     0.10500
H2976       H  0.67541124  0.48585218  0.95614684     0.10500
H2977       H  0.67187575  0.49973060  0.01554932     0.10200
H2978       H  0.70583953  0.50101588  0.01704838     0.11300
H2979       H  0.64426497  0.48488231  0.97181569     0.11400
H2980       H  0.64367249  0.50996465  0.00712085     0.13300
H2981       H  0.61302381  0.52497023  0.01219180     0.09800
H2982       H  0.57856321  0.52393111  0.01152899     0.11900
H2983       H  0.58115676  0.47376069  0.97680263     0.08500
H2984       H  0.61536844  0.47453782  0.97779738     0.11300
C2985       C  0.75788593  0.49698172  0.03387470    -0.03300
C2986       C  0.77565331  0.49681477  0.04260390    -0.05900
C2987       C  0.77708525  0.49776330  0.06231889    -0.21000
C2988       C  0.76081751  0.49861952  0.07376309     0.24700
C2989       C  0.74303720  0.49884229  0.06499836    -0.18600
C2990       C  0.74164159  0.49801342  0.04529912    -0.08500
C2991       C  0.76292494  0.49979867  0.09467833    -0.18800
C2992       C  0.74948499  0.49388641  0.10693589    -0.23600
C2993       C  0.75134465  0.49447315  0.12789695     0.26800
C2994       C  0.73967392  0.48262918  0.13882241    -0.20400
C2995       C  0.74042499  0.48292579  0.15856003    -0.10000
C2996       C  0.75276637  0.49526041  0.16795919    -0.10600
C2997       C  0.76446937  0.50719635  0.15704957    -0.03500
C2998       C  0.76376243  0.50684341  0.13722717    -0.18600
H2999       H  0.78847521  0.49634423  0.03417350     0.10500
H3000       H  0.79095962  0.49776796  0.06866160     0.10500
H3001       H  0.73015325  0.50003417  0.07322306     0.10200
H3002       H  0.72780608  0.49804776  0.03907514     0.11300
H3003       H  0.77636870  0.50473112  0.10001705     0.11400
H3004       H  0.73679828  0.48734695  0.10145344     0.13300
H3005       H  0.72990171  0.47304913  0.13204550     0.09800
H3006       H  0.73117446  0.47354889  0.16645528     0.11900
H3007       H  0.77407456  0.51693260  0.16382384     0.08500
H3008       H  0.77264740  0.51655617  0.12936116     0.11300
C3009       C  0.00312458  0.49196770  0.56279252    -0.03300
C3010       C  0.01422863  0.50553977  0.57199183    -0.05900
C3011       C  0.01502653  0.50602990  0.59176201    -0.21000
C3012       C  0.00482223  0.49297180  0.60286453     0.24700
C3013       C  0.99372218  0.47934232  0.59361371    -0.18600
C3014       C  0.99293990  0.47885449  0.57385574    -0.08500
C3015       C  0.00587724  0.49457354  0.62389161    -0.18800
C3016       C  0.99804414  0.48225168  0.63630695    -0.23600
C3017       C  0.99900326  0.48456309  0.65722978     0.26800
C3018       C  0.99629333  0.46865301  0.66888136    -0.20400
C3019       C  0.99688865  0.47027211  0.68860468    -0.10000
C3020       C  0.00011263  0.48791571  0.69718517    -0.10600
C3021       C  0.00272506  0.50382918  0.68548484    -0.03500
C3022       C  0.00198212  0.50224661  0.66580456    -0.18600
H3023       H  0.02224920  0.51586203  0.56393043     0.10500
H3024       H  0.02363839  0.51674884  0.59841771     0.10500
H3025       H  0.98538245  0.46911383  0.60136239     0.10200
H3026       H  0.98425211  0.46817668  0.56724610     0.11300
H3027       H  0.01387108  0.50644588  0.62930126     0.11400
H3028       H  0.99111861  0.46960649  0.63124308     0.13300
H3029       H  0.99387898  0.45486063  0.66269376     0.09800
H3030       H  0.99515744  0.45760427  0.69707440     0.11900
H3031       H  0.00512177  0.51766698  0.69140503     0.08500
H3032       H  0.00344139  0.51501788  0.65747094     0.11300
C3033       C  0.99691827  0.53565963  0.74113317    -0.03300
C3034       C  0.99152656  0.54426290  0.72414514    -0.05900
C3035       C  0.99023211  0.56392854  0.72276819    -0.21000
C3036       C  0.99453947  0.57542789  0.73829577     0.24700
C3037       C  0.99925422  0.56674836  0.75561568    -0.18600
C3038       C  0.00037771  0.54697902  0.75700813    -0.08500
C3039       C  0.99381898  0.59631626  0.73576187    -0.18800
C3040       C  0.00438126  0.60844949  0.74586510    -0.23600
C3041       C  0.00480948  0.62933492  0.74270099     0.26800
C3042       C  0.01929194  0.63984965  0.75112923    -0.20400
C3043       C  0.02010917  0.65951578  0.74906590    -0.10000
C3044       C  0.00641659  0.66921846  0.73849032    -0.10600
C3045       C  0.99201978  0.65872876  0.72985147    -0.03500
C3046       C  0.99113276  0.63904650  0.73200494    -0.18600
H3047       H  0.98819150  0.53575160  0.71194664     0.10500
H3048       H  0.98622505  0.57020211  0.70938455     0.10500
H3049       H  0.00203207  0.57512711  0.76807594     0.10200
H3050       H  0.00439882  0.54054300  0.77030645     0.11300
H3051       H  0.98537278  0.60154738  0.72415149     0.11400
H3052       H  0.01393324  0.60278893  0.75640493     0.13300
H3053       H  0.03000879  0.63282480  0.75945593     0.09800
H3054       H  0.03141963  0.66713001  0.75590697     0.11900
H3055       H  0.98116577  0.66577166  0.72173280     0.08500
H3056       H  0.97944824  0.63172194  0.72558444     0.11300
C3057       C  0.17971042  0.50819610  0.74531023    -0.03300
C3058       C  0.16954425  0.52080175  0.75691454    -0.05900
C3059       C  0.14981370  0.52179158  0.75591885    -0.21000
C3060       C  0.13981021  0.51009993  0.74346970     0.24700
C3061       C  0.15002401  0.49794624  0.73142486    -0.18600
C3062       C  0.16969962  0.49697130  0.73238975    -0.08500
C3063       C  0.11879945  0.51091333  0.74334505    -0.18800
C3064       C  0.10803865  0.49596366  0.73854891    -0.23600
C3065       C  0.08704579  0.49588810  0.73936001     0.26800
C3066       C  0.07775695  0.47844394  0.74130717    -0.20400
C3067       C  0.05806703  0.47754706  0.74202881    -0.10000
C3068       C  0.04717114  0.49408060  0.74050961    -0.10600
C3069       C  0.05637290  0.51154707  0.73821064    -0.03500
C3070       C  0.07614240  0.51248215  0.73770841    -0.18600
H3071       H  0.17680217  0.52976897  0.76690424     0.10500
H3072       H  0.14230684  0.53144797  0.76518546     0.10500
H3073       H  0.14290861  0.48924272  0.72112543     0.10200
H3074       H  0.17706133  0.48732267  0.72300716     0.11300
H3075       H  0.11210739  0.52368534  0.74865090     0.11400
H3076       H  0.11486515  0.48265209  0.73504146     0.13300
H3077       H  0.08578410  0.46543384  0.74240287     0.09800
H3078       H  0.05134197  0.46385479  0.74349786     0.11900
H3079       H  0.04828617  0.52450564  0.73704158     0.08500
H3080       H  0.08277464  0.52613512  0.73571629     0.11300
C3081       C  0.90830686  0.34829520  0.89816811    -0.03300
C3082       C  0.89889533  0.33810982  0.91258489    -0.05900
C3083       C  0.90882750  0.32643855  0.92503003    -0.21000
C3084       C  0.92844012  0.32435521  0.92328095     0.24700
C3085       C  0.93797845  0.33453843  0.90901384    -0.18600
C3086       C  0.92807287  0.34628162  0.89659655    -0.08500
C3087       C  0.93853877  0.31191537  0.93688186    -0.18800
C3088       C  0.95515677  0.30350457  0.93279646    -0.23600
C3089       C  0.96543799  0.29090065  0.94609927     0.26800
C3090       C  0.97876925  0.27820520  0.93869168    -0.20400
C3091       C  0.98929758  0.26657980  0.95064086    -0.10000
C3092       C  0.98698621  0.26739893  0.97042633    -0.10600
C3093       C  0.97353601  0.28019270  0.97784384    -0.03500
C3094       C  0.96293865  0.29179571  0.96583709    -0.18600
H3095       H  0.88373225  0.33934399  0.91430567     0.10500
H3096       H  0.90112541  0.31890549  0.93599920     0.10500
H3097       H  0.95317919  0.33382036  0.90758996     0.10200
H3098       H  0.93624832  0.35372176  0.88605566     0.11300
H3099       H  0.93151415  0.30887638  0.95024432     0.11400
H3100       H  0.96120502  0.30516759  0.91873441     0.13300
H3101       H  0.98110756  0.27730185  0.92355427     0.09800
H3102       H  0.99955060  0.25702019  0.94440746     0.11900
H3103       H  0.97118893  0.28177776  0.99282553     0.08500
H3104       H  0.95320746  0.30179105  0.97215983     0.11300
C3105       C  0.86301239  0.40278391  0.89553856    -0.03300
C3106       C  0.87050644  0.41330614  0.91053665    -0.05900
C3107       C  0.85910665  0.42562371  0.92093008    -0.21000
C3108       C  0.83994019  0.42783675  0.91658892     0.24700
C3109       C  0.83253700  0.41783608  0.90107428    -0.18600
C3110       C  0.84405481  0.40549525  0.89056990    -0.08500
C3111       C  0.82818176  0.43957104  0.92956879    -0.18800
C3112       C  0.81061425  0.44581099  0.92585108    -0.23600
C3113       C  0.79925023  0.45657240  0.93999588     0.26800
C3114       C  0.78537098  0.46926617  0.93382751    -0.20400
C3115       C  0.77450234  0.47949171  0.94690777    -0.10000
C3116       C  0.77707014  0.47717637  0.96654644    -0.10600
C3117       C  0.79077901  0.46405866  0.97261287    -0.03500
C3118       C  0.80162284  0.45389477  0.95954730    -0.18600
H3119       H  0.88515652  0.41168910  0.91451882     0.10500
H3120       H  0.86522448  0.43313489  0.93273912     0.10500
H3121       H  0.81777636  0.41883987  0.89743893     0.10200
H3122       H  0.83790861  0.39736946  0.87920077     0.11300
H3123       H  0.83458609  0.44346133  0.94291315     0.11400
H3124       H  0.80454468  0.44360456  0.91199269     0.13300
H3125       H  0.78304323  0.47140752  0.91884437     0.09800
H3126       H  0.76396884  0.48927625  0.94168122     0.11900
H3127       H  0.79329933  0.46117229  0.98732942     0.08500
H3128       H  0.81160566  0.44363483  0.96489764     0.11300
C3129       C  0.98326498  0.46917527  0.76451064    -0.03300
C3130       C  0.99139034  0.45572756  0.77678600    -0.05900
C3131       C  0.98008515  0.44387965  0.78792947    -0.21000
C3132       C  0.96033971  0.44501899  0.78732592     0.24700
C3133       C  0.95204994  0.45826409  0.77503400    -0.18600
C3134       C  0.96338615  0.47014012  0.76379682    -0.08500
C3135       C  0.94922367  0.43162674  0.79931788    -0.18800
C3136       C  0.93082098  0.43371512  0.80396889    -0.23600
C3137       C  0.92082739  0.42031077  0.81692951     0.26800
C3138       C  0.90556718  0.42678325  0.82799629    -0.20400
C3139       C  0.89686700  0.41483752  0.84133239    -0.10000
C3140       C  0.90329222  0.39619867  0.84379410    -0.10600
C3141       C  0.91782521  0.38942288  0.83199238    -0.03500
C3142       C  0.92641522  0.40126915  0.81864365    -0.18600
H3143       H  0.00641026  0.45379582  0.77787005     0.10500
H3144       H  0.98688565  0.43367366  0.79710321     0.10500
H3145       H  0.93688711  0.45929911  0.77372350     0.10200
H3146       H  0.95659938  0.48007301  0.75433373     0.11300
H3147       H  0.95703874  0.41994807  0.80547660     0.11400
H3148       H  0.92319516  0.44619996  0.79936950     0.13300
H3149       H  0.90079055  0.44129805  0.82677146     0.09800
H3150       H  0.88566560  0.42040484  0.85023093     0.11900
H3151       H  0.92267261  0.37493146  0.83319247     0.08500
H3152       H  0.93747193  0.39543744  0.80976500     0.11300
C3153       C  0.85511822  0.35380094  0.85144350    -0.03300
C3154       C  0.85279590  0.36056007  0.83290161    -0.05900
C3155       C  0.84085180  0.35109608  0.82030585    -0.21000
C3156       C  0.83099951  0.33473794  0.82601084     0.24700
C3157       C  0.83240044  0.32885063  0.84501187    -0.18600
C3158       C  0.84443120  0.33816278  0.85747465    -0.08500
C3159       C  0.81954789  0.32411608  0.81187550    -0.18800
C3160       C  0.81474348  0.30574147  0.81413037    -0.23600
C3161       C  0.80318106  0.29463627  0.80061373     0.26800
C3162       C  0.79302659  0.27906418  0.80761393    -0.20400
C3163       C  0.78230340  0.26779935  0.79556693    -0.10000
C3164       C  0.78187640  0.27132294  0.77596592    -0.10600
C3165       C  0.79201721  0.28709865  0.76894864    -0.03500
C3166       C  0.80254666  0.29859693  0.78112434    -0.18600
H3167       H  0.86087608  0.37259427  0.82787090     0.10500
H3168       H  0.83980452  0.35619294  0.80588529     0.10500
H3169       H  0.82433544  0.31702102  0.85043136     0.10200
H3170       H  0.84556581  0.33296148  0.87184930     0.11300
H3171       H  0.81532536  0.33158328  0.79915340     0.11400
H3172       H  0.81916074  0.29822079  0.82672253     0.13300
H3173       H  0.79321041  0.27570210  0.82257660     0.09800
H3174       H  0.77428418  0.25619692  0.80162258     0.11900
H3175       H  0.79165544  0.29103026  0.75420462     0.08500
H3176       H  0.81037135  0.31035856  0.77516532     0.11300
C3177       C  0.75449533  0.67502329  0.99866444    -0.03300
C3178       C  0.76897587  0.66521147  0.00800780    -0.05900
C3179       C  0.77093416  0.64561820  0.00592915    -0.21000
C3180       C  0.75841084  0.63529826  0.99461591     0.24700
C3181       C  0.74394959  0.64513068  0.98517431    -0.18600
C3182       C  0.74200848  0.66473040  0.98723064    -0.08500
C3183       C  0.76120185  0.61445673  0.99281774    -0.18800
C3184       C  0.74765610  0.60240761  0.98708717    -0.23600
C3185       C  0.75008408  0.58148953  0.98666212     0.26800
C3186       C  0.73395000  0.57007009  0.98828234    -0.20400
C3187       C  0.73550307  0.55036957  0.98863137    -0.10000
C3188       C  0.75322777  0.54160272  0.98707537    -0.10600
C3189       C  0.76937927  0.55293433  0.98474825    -0.03500
C3190       C  0.76784943  0.57271160  0.98457819    -0.18600
H3191       H  0.77896647  0.67269409  0.01676933     0.10500
H3192       H  0.78228866  0.63847680  0.01324943     0.10500
H3193       H  0.73430937  0.63791979  0.97586361     0.10200
H3194       H  0.73080869  0.67184968  0.97966631     0.11300
H3195       H  0.77461007  0.60877371  0.99753404     0.11400
H3196       H  0.73368493  0.60779363  0.98395030     0.13300
H3197       H  0.72008189  0.57642878  0.98962136     0.09800
H3198       H  0.72277220  0.54197887  0.99000313     0.11900
H3199       H  0.78321615  0.54651633  0.98344918     0.08500
H3200       H  0.78055586  0.58101110  0.98269408     0.11300
C3201       C  0.54315940  0.74922657  0.99149608    -0.03300
C3202       C  0.55218564  0.75495403  0.97457525    -0.05900
C3203       C  0.57190692  0.75462082  0.97290011    -0.21000
C3204       C  0.58309333  0.74871474  0.98809456     0.24700
C3205       C  0.57414829  0.74273095  0.00487266    -0.18600
C3206       C  0.55451189  0.74305620  0.00656102    -0.08500
C3207       C  0.60399826  0.74840600  0.98602203    -0.18800
C3208       C  0.61550154  0.75114863  0.00084849    -0.23600
C3209       C  0.63643868  0.75078360  0.99968639     0.26800
C3210       C  0.64663331  0.76033399  0.01364696    -0.20400
C3211       C  0.66632135  0.75968097  0.01383791    -0.10000
C3212       C  0.67634973  0.74920664  0.00018210    -0.10600
C3213       C  0.66616229  0.73960105  0.98614311    -0.03500
C3214       C  0.64638587  0.74038984  0.98586896    -0.18600
H3215       H  0.54410831  0.75932453  0.96240469     0.10500
H3216       H  0.57844985  0.75905776  0.95971490     0.10500
H3217       H  0.58226189  0.73746586  0.01668333     0.10200
H3218       H  0.54847086  0.73844400  0.01982757     0.11300
H3219       H  0.60993544  0.74678811  0.97191144     0.11400
H3220       H  0.60932776  0.75464983  0.01451298     0.13300
H3221       H  0.63931338  0.76833886  0.02451294     0.09800
H3222       H  0.67367201  0.76727146  0.02484541     0.11900
H3223       H  0.67345924  0.73141561  0.97541061     0.08500
H3224       H  0.63897250  0.73248117  0.97515163     0.11300
C3225       C  0.82452843  0.75212724  0.99953671    -0.03300
C3226       C  0.83371544  0.76579794  0.98829567    -0.05900
C3227       C  0.85339961  0.76590058  0.98661648    -0.21000
C3228       C  0.86438469  0.75239928  0.99613063     0.24700
C3229       C  0.85519514  0.73876429  0.00747124    -0.18600
C3230       C  0.83551964  0.73871666  0.00921716    -0.08500
C3231       C  0.88517061  0.75236734  0.99290676    -0.18800
C3232       C  0.89756179  0.74308020  0.00395074    -0.23600
C3233       C  0.91816162  0.74237113  0.99988180     0.26800
C3234       C  0.93064891  0.73863033  0.01474630    -0.20400
C3235       C  0.95011376  0.73772936  0.01142688    -0.10000
C3236       C  0.95750547  0.74039853  0.99309021    -0.10600
C3237       C  0.94496291  0.74374454  0.97817699    -0.03500
C3238       C  0.92552186  0.74461990  0.98147188    -0.18600
H3239       H  0.82569317  0.77632547  0.98062004     0.10500
H3240       H  0.86006525  0.77647979  0.97768037     0.10500
H3241       H  0.86297216  0.72773273  0.01461102     0.10200
H3242       H  0.82889701  0.72787450  0.01784878     0.11300
H3243       H  0.89042546  0.76068083  0.98105813     0.11400
H3244       H  0.89269757  0.73620770  0.01682240     0.13300
H3245       H  0.92534395  0.73666612  0.02903367     0.09800
H3246       H  0.95936950  0.73540313  0.02332343     0.11900
H3247       H  0.95006891  0.74550111  0.96387322     0.08500
H3248       H  0.91635501  0.74674630  0.96948712     0.11300
C3249       C  0.75110024  0.75011403  0.07611869    -0.03300
C3250       C  0.73897819  0.76263902  0.08580662    -0.05900
C3251       C  0.73946479  0.76406503  0.10553067    -0.21000
C3252       C  0.75190534  0.75289868  0.11614982     0.24700
C3253       C  0.76410975  0.74039020  0.10650925    -0.18600
C3254       C  0.76368338  0.73901310  0.08672716    -0.08500
C3255       C  0.75206041  0.75514827  0.13712064    -0.18800
C3256       C  0.75790498  0.74154397  0.14913791    -0.23600
C3257       C  0.75705018  0.74347166  0.17010882     0.26800
C3258       C  0.75515815  0.72705298  0.18118503    -0.20400
C3259       C  0.75399170  0.72819512  0.20090923    -0.10000
C3260       C  0.75513388  0.74576594  0.21003397    -0.10600
C3261       C  0.75756553  0.76220351  0.19905983    -0.03500
C3262       C  0.75842598  0.76110123  0.17926899    -0.18600
H3263       H  0.72916625  0.77150797  0.07814187     0.10500
H3264       H  0.73000168  0.77390674  0.11253784     0.10500
H3265       H  0.77429075  0.73193173  0.11410877     0.10200
H3266       H  0.77334725  0.72937193  0.07973595     0.11300
H3267       H  0.74602911  0.76807172  0.14285380     0.11400
H3268       H  0.76224568  0.72791628  0.14354225     0.13300
H3269       H  0.75429751  0.71329035  0.17452631     0.09800
H3270       H  0.75239824  0.71528587  0.20906277     0.11900
H3271       H  0.75848770  0.77592632  0.20578167     0.08500
H3272       H  0.76040663  0.77401369  0.17123867     0.11300
C3273       C  0.50979583  0.28755817  0.00837891    -0.03300
C3274       C  0.49194805  0.29618405  0.00775522    -0.05900
C3275       C  0.49014666  0.31580552  0.00939201    -0.21000
C3276       C  0.50614744  0.32730637  0.01138374     0.24700
C3277       C  0.52403017  0.31862295  0.01253573    -0.18600
C3278       C  0.52580693  0.29891923  0.01108339    -0.08500
C3279       C  0.50351331  0.34821203  0.01202340    -0.18800
C3280       C  0.51689843  0.36060192  0.00641455    -0.23600
C3281       C  0.51363845  0.38135805  0.00471854     0.26800
C3282       C  0.52497285  0.39171330  0.99204486    -0.20400
C3283       C  0.52240841  0.41118960  0.98973053    -0.10000
C3284       C  0.50855849  0.42089562  0.00024402    -0.10600
C3285       C  0.49729175  0.41058204  0.01312332    -0.03500
C3286       C  0.49979772  0.39102747  0.01536094    -0.18600
H3287       H  0.47931744  0.28773536  0.00609746     0.10500
H3288       H  0.47619914  0.32206372  0.00870559     0.10500
H3289       H  0.53665461  0.32693613  0.01463915     0.10200
H3290       H  0.53972514  0.29260174  0.01167755     0.11300
H3291       H  0.48949514  0.35339394  0.01554445     0.11400
H3292       H  0.53034660  0.35526059  0.00124786     0.13300
H3293       H  0.53579744  0.38466206  0.98374901     0.09800
H3294       H  0.53144036  0.41866813  0.97980115     0.11900
H3295       H  0.48662197  0.41763825  0.02160415     0.08500
H3296       H  0.49111011  0.38366191  0.02565068     0.11300
C3297       C  0.46764181  0.23998181  0.00466161    -0.03300
C3298       C  0.45806130  0.23546492  0.02156512    -0.05900
C3299       C  0.43833101  0.23595740  0.02242258    -0.21000
C3300       C  0.42777796  0.24077558  0.00639286     0.24700
C3301       C  0.43736911  0.24498458  0.98939267    -0.18600
C3302       C  0.45706343  0.24447894  0.98853644    -0.08500
C3303       C  0.40691297  0.24219543  0.00809917    -0.18800
C3304       C  0.39528887  0.24000513  0.99329544    -0.23600
C3305       C  0.37445754  0.24149152  0.99487520     0.26800
C3306       C  0.36334447  0.23126092  0.98217142    -0.20400
C3307       C  0.34368195  0.23243333  0.98296588    -0.10000
C3308       C  0.33466378  0.24409030  0.99636922    -0.10600
C3309       C  0.34581566  0.25459588  0.00893714    -0.03500
C3310       C  0.36552918  0.25332798  0.00819829    -0.18600
H3311       H  0.46579626  0.23217674  0.03430741     0.10500
H3312       H  0.43128603  0.23276352  0.03570984     0.10500
H3313       H  0.42979394  0.24920322  0.97684002     0.10200
H3314       H  0.46397751  0.24773270  0.97521200     0.11300
H3315       H  0.40095669  0.24436724  0.02213297     0.11400
H3316       H  0.40108660  0.23592793  0.97963967     0.13300
H3317       H  0.36990847  0.22217921  0.97168391     0.09800
H3318       H  0.33555408  0.22416331  0.97305161     0.11900
H3319       H  0.33932577  0.26383875  0.01931712     0.08500
H3320       H  0.37371271  0.26186035  0.01782644     0.11300
C3321       C  0.53367722  0.22196043  0.02501370    -0.03300
C3322       C  0.54831338  0.21024018  0.01817793    -0.05900
C3323       C  0.55847962  0.19860554  0.03043615    -0.21000
C3324       C  0.55456719  0.19828471  0.04991919     0.24700
C3325       C  0.54029012  0.21023372  0.05699175    -0.18600
C3326       C  0.53009650  0.22197267  0.04469294    -0.08500
C3327       C  0.56521670  0.18454912  0.06182895    -0.18800
C3328       C  0.56564149  0.18427401  0.08093283    -0.23600
C3329       C  0.57674872  0.16973984  0.09141528     0.26800
C3330       C  0.58524161  0.17426429  0.10874146    -0.20400
C3331       C  0.59721562  0.16124606  0.11775992    -0.10000
C3332       C  0.60083785  0.14347953  0.10960338    -0.10600
C3333       C  0.59113542  0.13850634  0.09306272    -0.03500
C3334       C  0.57923671  0.15140886  0.08411975    -0.18600
H3335       H  0.55220141  0.20969846  0.00344464     0.10500
H3336       H  0.56944303  0.18962000  0.02455483     0.10500
H3337       H  0.53660670  0.21030377  0.07186068     0.10200
H3338       H  0.51903606  0.23086149  0.05051993     0.11300
H3339       H  0.57370012  0.17423062  0.05419929     0.11400
H3340       H  0.55873140  0.19534471  0.08902483     0.13300
H3341       H  0.58323573  0.18815259  0.11489307     0.09800
H3342       H  0.60425777  0.16543467  0.13057921     0.11900
H3343       H  0.59298989  0.12465470  0.08679253     0.08500
H3344       H  0.57214868  0.14701914  0.07135170     0.11300
C3345       C  0.46111283  0.50782578  0.74080259    -0.03300
C3346       C  0.45141130  0.50972102  0.72366171    -0.05900
C3347       C  0.43172892  0.50831590  0.72323784    -0.21000
C3348       C  0.42126191  0.50499616  0.73989503     0.24700
C3349       C  0.43098496  0.50358779  0.75714861    -0.18600
C3350       C  0.45067972  0.50493081  0.75754677    -0.08500
C3351       C  0.40029975  0.50388052  0.73856363    -0.18800
C3352       C  0.38871336  0.49784298  0.75259320    -0.23600
C3353       C  0.36772175  0.49790079  0.75112985     0.26800
C3354       C  0.35700808  0.48660743  0.76360245    -0.20400
C3355       C  0.33722805  0.48676598  0.76300641    -0.10000
C3356       C  0.32772050  0.49834225  0.74996262    -0.10600
C3357       C  0.33846076  0.50972148  0.73758762    -0.03500
C3358       C  0.35815589  0.50959853  0.73821234    -0.18600
H3359       H  0.45904685  0.51183100  0.71049614     0.10500
H3360       H  0.42465389  0.50967347  0.70976723     0.10500
H3361       H  0.42358008  0.50171734  0.77043846     0.10200
H3362       H  0.45771737  0.50392607  0.77105558     0.11300
H3363       H  0.39427296  0.50790925  0.72508720     0.11400
H3364       H  0.39462430  0.49225956  0.76555637     0.13300
H3365       H  0.36396811  0.47763256  0.77386009     0.09800
H3366       H  0.32940068  0.47791530  0.77282811     0.11900
H3367       H  0.33164402  0.51897225  0.72748609     0.08500
H3368       H  0.36569285  0.51909244  0.72882717     0.11300
C3369       C  0.50428054  0.49419216  0.92030129    -0.03300
C3370       C  0.51529191  0.48089047  0.91037238    -0.05900
C3371       C  0.51628582  0.48126833  0.89058483    -0.21000
C3372       C  0.50654637  0.49508417  0.88018067     0.24700
C3373       C  0.49531197  0.50827329  0.89005964    -0.18600
C3374       C  0.49420223  0.50781367  0.90987484    -0.08500
C3375       C  0.50793689  0.49473144  0.85910729    -0.18800
C3376       C  0.50471509  0.50987643  0.84787328    -0.23600
C3377       C  0.50600558  0.50929638  0.82676951     0.26800
C3378       C  0.50841077  0.52629588  0.81662616    -0.20400
C3379       C  0.50902828  0.52637320  0.79677763    -0.10000
C3380       C  0.50701394  0.50943677  0.78662773    -0.10600
C3381       C  0.50474643  0.49243484  0.79676288    -0.03500
C3382       C  0.50414131  0.49234395  0.81653663    -0.18600
H3383       H  0.52316003  0.47013250  0.91788900     0.10500
H3384       H  0.52486463  0.47079111  0.88336850     0.10500
H3385       H  0.48711383  0.51877701  0.88258065     0.10200
H3386       H  0.48549511  0.51821360  0.91703260     0.11300
H3387       H  0.51268747  0.48158183  0.85277010     0.11400
H3388       H  0.50166152  0.52347461  0.85431430     0.13300
H3389       H  0.50971834  0.53959448  0.82409282     0.09800
H3390       H  0.51057387  0.53972833  0.78938425     0.11900
H3391       H  0.50342098  0.47908292  0.78941264     0.08500
H3392       H  0.50176199  0.47897960  0.82363582     0.11300
C3393       C  0.52607485  0.52828325  0.71815327    -0.03300
C3394       C  0.52381260  0.52443484  0.69871731    -0.05900
C3395       C  0.53465798  0.53377552  0.68493244    -0.21000
C3396       C  0.54785772  0.54756121  0.69007638     0.24700
C3397       C  0.55014451  0.55160439  0.70942249    -0.18600
C3398       C  0.53941720  0.54212899  0.72326403    -0.08500
C3399       C  0.55945397  0.55702966  0.67507055    -0.18800
C3400       C  0.56568434  0.57495501  0.67677109    -0.23600
C3401       C  0.57757234  0.58511533  0.66248713     0.26800
C3402       C  0.57814215  0.60493918  0.66335894    -0.20400
C3403       C  0.59080592  0.61521860  0.65214931    -0.10000
C3404       C  0.60330462  0.60595391  0.63976346    -0.10600
C3405       C  0.60217687  0.58620422  0.63798583    -0.03500
C3406       C  0.58943703  0.57580284  0.64932659    -0.18600
H3407       H  0.51371832  0.51389153  0.69419858     0.10500
H3408       H  0.53264586  0.53028326  0.67016978     0.10500
H3409       H  0.56055383  0.56179507  0.71397777     0.10200
H3410       H  0.54192832  0.54572898  0.73783243     0.11300
H3411       H  0.56208634  0.54934998  0.66203168     0.11400
H3412       H  0.56140811  0.58298078  0.68917471     0.13300
H3413       H  0.56917530  0.61250970  0.67326310     0.09800
H3414       H  0.59141332  0.63045671  0.65372361     0.11900
H3415       H  0.61187080  0.57877699  0.62868542     0.08500
H3416       H  0.58963312  0.56052414  0.64843808     0.11300
C3417       C  0.50805494  0.25818981  0.67617136    -0.03300
C3418       C  0.51762878  0.27262244  0.66628535    -0.05900
C3419       C  0.51646079  0.27394138  0.64656972    -0.21000
C3420       C  0.50588903  0.26078020  0.63624126     0.24700
C3421       C  0.49619151  0.24640544  0.64614231    -0.18600
C3422       C  0.49731546  0.24511348  0.66584945    -0.08500
C3423       C  0.50490488  0.26280054  0.61528777    -0.18800
C3424       C  0.50097053  0.24826935  0.60364357    -0.23600
C3425       C  0.50058076  0.24987220  0.58265565     0.26800
C3426       C  0.50325894  0.23340899  0.57190668    -0.20400
C3427       C  0.50317626  0.23412966  0.55216207    -0.10000
C3428       C  0.50027763  0.25134593  0.54265233    -0.10600
C3429       C  0.49702316  0.26778936  0.55335723    -0.03500
C3430       C  0.49717191  0.26708370  0.57317216    -0.18600
H3431       H  0.52589975  0.28303235  0.67378821     0.10500
H3432       H  0.52392605  0.28525455  0.63934328     0.10500
H3433       H  0.48737813  0.23634472  0.63883530     0.10200
H3434       H  0.48960343  0.23393398  0.67301195     0.11300
H3435       H  0.50857694  0.27648024  0.60929657     0.11400
H3436       H  0.49905996  0.23421395  0.60956837     0.13300
H3437       H  0.50561752  0.21992074  0.57882251     0.09800
H3438       H  0.50523064  0.22111629  0.54435889     0.11900
H3439       H  0.49473717  0.28127058  0.54642626     0.08500
H3440       H  0.49445608  0.27998193  0.58094019     0.11300
C3441       C  0.71544099  0.25279179  0.75874540    -0.03300
C3442       C  0.70636298  0.25649003  0.77609115    -0.05900
C3443       C  0.68663953  0.25674380  0.77729392    -0.21000
C3444       C  0.67566072  0.25354841  0.76116787     0.24700
C3445       C  0.68478754  0.24976977  0.74384147    -0.18600
C3446       C  0.70444598  0.24950932  0.74264939    -0.08500
C3447       C  0.65477807  0.25360854  0.76294426    -0.18800
C3448       C  0.64338988  0.25783614  0.74836886    -0.23600
C3449       C  0.62250391  0.25772960  0.74976168     0.26800
C3450       C  0.61218522  0.26886567  0.73705275    -0.20400
C3451       C  0.59247598  0.26878327  0.73749419    -0.10000
C3452       C  0.58264354  0.25733253  0.75053099    -0.10600
C3453       C  0.59298687  0.24605754  0.76318832    -0.03500
C3454       C  0.61271635  0.24622234  0.76280368    -0.18600
H3455       H  0.71448371  0.25876884  0.78879763     0.10500
H3456       H  0.67993194  0.25946792  0.79084376     0.10500
H3457       H  0.67684202  0.24665224  0.73121988     0.10200
H3458       H  0.71101388  0.24681188  0.72903939     0.11300
H3459       H  0.64872296  0.25091191  0.77684757     0.11400
H3460       H  0.64953983  0.26241605  0.73500801     0.13300
H3461       H  0.61941143  0.27770807  0.72675911     0.09800
H3462       H  0.58495683  0.27757822  0.72749302     0.11900
H3463       H  0.58584692  0.23697610  0.77332052     0.08500
H3464       H  0.62019472  0.23700498  0.77242632     0.11300
C3465       C  0.50846353  0.46334087  0.74243899    -0.03300
C3466       C  0.52584148  0.45424842  0.73928650    -0.05900
C3467       C  0.52718149  0.43454766  0.74021301    -0.21000
C3468       C  0.51125228  0.42345551  0.74441893     0.24700
C3469       C  0.49377696  0.43254471  0.74736682    -0.18600
C3470       C  0.49244167  0.45227111  0.74642647    -0.08500
C3471       C  0.51342407  0.40251808  0.74473988    -0.18800
C3472       C  0.50084077  0.39054917  0.75270771    -0.23600
C3473       C  0.50302269  0.36960770  0.75237944     0.26800
C3474       C  0.49302648  0.35867538  0.76570045    -0.20400
C3475       C  0.49434835  0.33892172  0.76558654    -0.10000
C3476       C  0.50567693  0.32964994  0.75206533    -0.10600
C3477       C  0.51557109  0.34058048  0.73863798    -0.03500
C3478       C  0.51418332  0.36030153  0.73869972    -0.18600
H3479       H  0.53851173  0.46235161  0.73641368     0.10500
H3480       H  0.54078570  0.42794399  0.73774153     0.10500
H3481       H  0.48099644  0.42457653  0.74997644     0.10200
H3482       H  0.47874309  0.45879332  0.74844247     0.11300
H3483       H  0.52633631  0.39687901  0.73862040     0.11400
H3484       H  0.48875407  0.39615932  0.76035939     0.13300
H3485       H  0.48417465  0.36544808  0.77626576     0.09800
H3486       H  0.48647520  0.33092374  0.77608490     0.11900
H3487       H  0.52421130  0.33388552  0.72785819     0.08500
H3488       H  0.52155784  0.36807149  0.72771985     0.11300
C3489       C  0.50733076  0.25528631  0.82496486    -0.03300
C3490       C  0.49461604  0.26706110  0.83478901    -0.05900
C3491       C  0.49441667  0.26747723  0.85458397    -0.21000
C3492       C  0.50679646  0.25606796  0.86505485     0.24700
C3493       C  0.51963255  0.24438473  0.85520383    -0.18600
C3494       C  0.51980902  0.24394388  0.83542446    -0.08500
C3495       C  0.50628593  0.25724567  0.88611611    -0.18800
C3496       C  0.51322018  0.24365243  0.89757354    -0.23600
C3497       C  0.51292624  0.24443681  0.91866481     0.26800
C3498       C  0.51719144  0.22783764  0.92873514    -0.20400
C3499       C  0.51736163  0.22771005  0.94850317    -0.10000
C3500       C  0.51334139  0.24425266  0.95877074    -0.10600
C3501       C  0.50920902  0.26093781  0.94876266    -0.03500
C3502       C  0.50907104  0.26108864  0.92894238    -0.18600
H3503       H  0.48485325  0.27604387  0.82719298     0.10500
H3504       H  0.48449821  0.27673543  0.86175413     0.10500
H3505       H  0.52988105  0.23583885  0.86259110     0.10200
H3506       H  0.52990696  0.23483548  0.82832571     0.11300
H3507       H  0.49925575  0.26944853  0.89220133     0.11400
H3508       H  0.51887533  0.23082752  0.89131991     0.13300
H3509       H  0.52029440  0.21481428  0.92126812     0.09800
H3510       H  0.52031616  0.21452281  0.95572487     0.11900
H3511       H  0.50642257  0.27401496  0.95622909     0.08500
H3512       H  0.50624299  0.27435990  0.92189278     0.11300
C3513       C  0.50676429  0.04787568  0.76493227    -0.03300
C3514       C  0.50577642  0.05803022  0.78198341    -0.05900
C3515       C  0.50720667  0.07778455  0.78196630    -0.21000
C3516       C  0.50942268  0.08782086  0.76492158     0.24700
C3517       C  0.51052358  0.07760541  0.74786464    -0.18600
C3518       C  0.50915171  0.05787373  0.74789742    -0.08500
C3519       C  0.51109904  0.10881116  0.76550857    -0.18800
C3520       C  0.50686862  0.12005233  0.75070348    -0.23600
C3521       C  0.50812552  0.14104649  0.75111371     0.26800
C3522       C  0.49720217  0.15145630  0.73830100    -0.20400
C3523       C  0.49789653  0.17120207  0.73804143    -0.10000
C3524       C  0.50970600  0.18106566  0.75050733    -0.10600
C3525       C  0.52097323  0.17064657  0.76311082    -0.03500
C3526       C  0.52022371  0.15083522  0.76340678    -0.18600
H3527       H  0.50423649  0.05068601  0.79536949     0.10500
H3528       H  0.50652258  0.08526212  0.79531722     0.10500
H3529       H  0.51279222  0.08469679  0.73446647     0.10200
H3530       H  0.50981812  0.05045580  0.73452141     0.11300
H3531       H  0.51503700  0.11516245  0.77887447     0.11400
H3532       H  0.50119046  0.11377480  0.73796263     0.13300
H3533       H  0.48791365  0.14427729  0.72855353     0.09800
H3534       H  0.48907401  0.17873372  0.72809277     0.11900
H3535       H  0.53034940  0.17779185  0.77278573     0.08500
H3536       H  0.52931656  0.14329368  0.77307076     0.11300
C3537       C  0.26008444  0.24673656  0.79085343    -0.03300
C3538       C  0.27765434  0.24657366  0.79989651    -0.05900
C3539       C  0.27867226  0.24517301  0.81958827    -0.21000
C3540       C  0.26216646  0.24417529  0.83066952     0.24700
C3541       C  0.24455006  0.24407290  0.82156874    -0.18600
C3542       C  0.24354731  0.24534217  0.80185373    -0.08500
C3543       C  0.26395313  0.24283464  0.85157184    -0.18800
C3544       C  0.25028891  0.24832837  0.86374364    -0.23600
C3545       C  0.25251243  0.24783441  0.88463057     0.26800
C3546       C  0.24185520  0.26040452  0.89573613    -0.20400
C3547       C  0.24371881  0.26060814  0.91541067    -0.10000
C3548       C  0.25617809  0.24807339  0.92446796    -0.10600
C3549       C  0.26652345  0.23515588  0.91337172    -0.03500
C3550       C  0.26469497  0.23499914  0.89367873    -0.18600
H3551       H  0.29064053  0.24723459  0.79173091     0.10500
H3552       H  0.29241723  0.24502415  0.82620765     0.10500
H3553       H  0.23152203  0.24273969  0.82953932     0.10200
H3554       H  0.22981800  0.24543088  0.79521613     0.11300
H3555       H  0.27748988  0.23826707  0.85705387     0.11400
H3556       H  0.23744407  0.25463568  0.85831270     0.13300
H3557       H  0.23220951  0.27028181  0.88914009     0.09800
H3558       H  0.23537623  0.27060664  0.92351639     0.11900
H3559       H  0.27601220  0.22509361  0.91990118     0.08500
H3560       H  0.27264131  0.22463766  0.88566413     0.11300
C3561       C  0.23585098  0.23036278  0.72465777    -0.03300
C3562       C  0.23911706  0.23133172  0.70500209    -0.05900
C3563       C  0.22819612  0.22084851  0.69244309    -0.21000
C3564       C  0.21337778  0.20942030  0.69908229     0.24700
C3565       C  0.20951595  0.20895872  0.71862726    -0.18600
C3566       C  0.22053549  0.21935081  0.73123167    -0.08500
C3567       C  0.20321647  0.19733335  0.68530688    -0.18800
C3568       C  0.18634855  0.18914510  0.68871828    -0.23600
C3569       C  0.17721866  0.17621727  0.67500754     0.26800
C3570       C  0.15750806  0.17460942  0.67499561    -0.20400
C3571       C  0.14855462  0.16252365  0.66227100    -0.10000
C3572       C  0.15906974  0.15144681  0.64939685    -0.10600
C3573       C  0.17892614  0.15282174  0.64979075    -0.03500
C3574       C  0.18784487  0.16500255  0.66244155    -0.18600
H3575       H  0.25051105  0.23993313  0.69936956     0.10500
H3576       H  0.23149089  0.22151952  0.67746150     0.10500
H3577       H  0.19838376  0.20017777  0.72441536     0.10200
H3578       H  0.21680637  0.21850320  0.74601188     0.11300
H3579       H  0.20992029  0.19533219  0.67158737     0.11400
H3580       H  0.17857716  0.19243180  0.70157932     0.13300
H3581       H  0.14898985  0.18291558  0.68469667     0.09800
H3582       H  0.13327453  0.16183204  0.66241638     0.11900
H3583       H  0.18789608  0.14474404  0.64046861     0.08500
H3584       H  0.20311781  0.16535158  0.66251578     0.11300
C3585       C  0.25011864  0.42804507  0.74672601    -0.03300
C3586       C  0.24024102  0.41903246  0.73210511    -0.05900
C3587       C  0.23954429  0.39931636  0.73108683    -0.21000
C3588       C  0.24873630  0.38811247  0.74458141     0.24700
C3589       C  0.25836085  0.39710075  0.75944248    -0.18600
C3590       C  0.25914171  0.41686673  0.76041067    -0.08500
C3591       C  0.24756260  0.36718118  0.74284939    -0.18800
C3592       C  0.26030133  0.35529557  0.75045908    -0.23600
C3593       C  0.25958243  0.33435077  0.74852002     0.26800
C3594       C  0.27597681  0.32396085  0.75235433    -0.20400
C3595       C  0.27597424  0.30423864  0.75135448    -0.10000
C3596       C  0.25955356  0.29429425  0.74641561    -0.10600
C3597       C  0.24306106  0.30471648  0.74262109    -0.03500
C3598       C  0.24303137  0.32449144  0.74372170    -0.18600
H3599       H  0.23314226  0.42721723  0.72130884     0.10500
H3600       H  0.23192208  0.39278609  0.71958729     0.10500
H3601       H  0.26506521  0.38900149  0.77051843     0.10200
H3602       H  0.26665351  0.42339075  0.77197740     0.11300
H3603       H  0.23638074  0.36158103  0.73409348     0.11400
H3604       H  0.27238784  0.36111128  0.75777237     0.13300
H3605       H  0.28889493  0.33114139  0.75621655     0.09800
H3606       H  0.28895382  0.29696399  0.75449675     0.11900
H3607       H  0.22995668  0.29762559  0.73934971     0.08500
H3608       H  0.22988175  0.33184021  0.74128889     0.11300
C3609       C  0.30291200  0.24558180  0.74255218    -0.03300
C3610       C  0.31194206  0.22791187  0.74306322    -0.05900
C3611       C  0.33166675  0.22683202  0.74235302    -0.21000
C3612       C  0.34259575  0.24338203  0.74114731     0.24700
C3613       C  0.33340025  0.26097494  0.73975281    -0.18600
C3614       C  0.31376830  0.26201632  0.74056945    -0.08500
C3615       C  0.36348303  0.24188434  0.74119762    -0.18800
C3616       C  0.37463962  0.25600336  0.74732543    -0.23600
C3617       C  0.39553427  0.25491814  0.74794366     0.26800
C3618       C  0.40521828  0.26769855  0.75953320    -0.20400
C3619       C  0.42490245  0.26744202  0.76038784    -0.10000
C3620       C  0.43534005  0.25446185  0.74951145    -0.10600
C3621       C  0.42566355  0.24176475  0.73777127    -0.03500
C3622       C  0.40598107  0.24201495  0.73692909    -0.18600
H3623       H  0.30376594  0.21502947  0.74447424     0.10500
H3624       H  0.33841326  0.21309212  0.74315330     0.10500
H3625       H  0.34125476  0.27397004  0.73782955     0.10200
H3626       H  0.30705533  0.27567023  0.73930294     0.11300
H3627       H  0.36961875  0.22840429  0.73716305     0.11400
H3628       H  0.36820797  0.26872187  0.75306310     0.13300
H3629       H  0.39751420  0.27791147  0.76801003     0.09800
H3630       H  0.43192982  0.27750867  0.76946397     0.11900
H3631       H  0.43330245  0.23169747  0.72907564     0.08500
H3632       H  0.39913877  0.23233844  0.72735182     0.11300
C3633       C  0.00574319  0.99213000  0.90873840    -0.03300
C3634       C  0.01873800  0.97999895  0.89972213    -0.05900
C3635       C  0.02087717  0.98027475  0.88002356    -0.21000
C3636       C  0.00993617  0.99248334  0.86890170     0.24700
C3637       C  0.99702071  0.00470176  0.87790704    -0.18600
C3638       C  0.99493668  0.00449375  0.89758054    -0.08500
C3639       C  0.01267348  0.99259452  0.84803996    -0.18800
C3640       C  0.99875102  0.99721059  0.83603294    -0.23600
C3641       C  0.00101582  0.99713381  0.81516528     0.26800
C3642       C  0.98514784  0.99340672  0.80411264    -0.20400
C3643       C  0.98645364  0.99350029  0.78442160    -0.10000
C3644       C  0.00359641  0.99780169  0.77519361    -0.10600
C3645       C  0.01951773  0.00174579  0.78631273    -0.03500
C3646       C  0.01826633  0.00136219  0.80610942    -0.18600
H3647       H  0.02737523  0.97037582  0.90788755     0.10500
H3648       H  0.03102749  0.97083834  0.87343741     0.10500
H3649       H  0.98877256  0.01473952  0.86985776     0.10200
H3650       H  0.98493848  0.01415645  0.90405270     0.11300
H3651       H  0.02617320  0.98780092  0.84244280     0.11400
H3652       H  0.98471112  0.00008658  0.84160622     0.13300
H3653       H  0.97167701  0.99021757  0.81075747     0.09800
H3654       H  0.97385218  0.99031379  0.77659772     0.11900
H3655       H  0.03303215  0.00483693  0.77976226     0.08500
H3656       H  0.03070246  0.00468233  0.81425523     0.11300
C3657       C  0.96223667  0.00016805  0.72647423    -0.03300
C3658       C  0.95275214  0.99625153  0.70959402    -0.05900
C3659       C  0.93297646  0.99658086  0.70914775    -0.21000
C3660       C  0.92248103  0.00067674  0.72559492     0.24700
C3661       C  0.93213330  0.00529223  0.74226757    -0.18600
C3662       C  0.95181265  0.00503281  0.74265242    -0.08500
C3663       C  0.90154228  0.00058772  0.72494371    -0.18800
C3664       C  0.89080001  0.99623277  0.74015799    -0.23600
C3665       C  0.86986247  0.99640692  0.74004467     0.26800
C3666       C  0.86002689  0.98488929  0.75296717    -0.20400
C3667       C  0.84030065  0.98508655  0.75369933    -0.10000
C3668       C  0.82998887  0.99702700  0.74165674    -0.10600
C3669       C  0.83986995  0.00872202  0.72884294    -0.03500
C3670       C  0.85959099  0.00843380  0.72804385    -0.18600
H3671       H  0.96062208  0.99251933  0.69694141     0.10500
H3672       H  0.92585310  0.99324841  0.69606650     0.10500
H3673       H  0.92454392  0.00936209  0.75496914     0.10200
H3674       H  0.95891691  0.00890491  0.75554146     0.11300
H3675       H  0.89490533  0.00332048  0.71141334     0.11400
H3676       H  0.89757093  0.99158754  0.75310091     0.13300
H3677       H  0.86764353  0.97564373  0.76248972     0.09800
H3678       H  0.83314660  0.97594737  0.76376828     0.11900
H3679       H  0.83237515  0.01821108  0.71947213     0.08500
H3680       H  0.86672197  0.01793878  0.71832457     0.11300
C3681       C  0.00536328  0.95208386  0.72935142    -0.03300
C3682       C  0.98780189  0.94292131  0.73058922    -0.05900
C3683       C  0.98674126  0.92322371  0.73160266    -0.21000
C3684       C  0.00316622  0.91214776  0.73114435     0.24700
C3685       C  0.02080986  0.92127083  0.72956535    -0.18600
C3686       C  0.02186898  0.94106406  0.72860646    -0.08500
C3687       C  0.00121542  0.89127054  0.73314504    -0.18800
C3688       C  0.01421806  0.87882073  0.72688867    -0.23600
C3689       C  0.01203525  0.85792589  0.72857347     0.26800
C3690       C  0.02237706  0.84635404  0.71618443    -0.20400
C3691       C  0.02113614  0.82666597  0.71742055    -0.10000
C3692       C  0.00959118  0.81798114  0.73121819    -0.10600
C3693       C  0.99926689  0.82953860  0.74372572    -0.03500
C3694       C  0.00050650  0.84930400  0.74247157    -0.18600
H3695       H  0.97479143  0.95097245  0.73076641     0.10500
H3696       H  0.97298782  0.91659836  0.73276925     0.10500
H3697       H  0.03383370  0.91327486  0.72966250     0.10200
H3698       H  0.03560806  0.94775541  0.72791897     0.11300
H3699       H  0.98806754  0.88603778  0.73915205     0.11400
H3700       H  0.02656426  0.88400837  0.71931016     0.13300
H3701       H  0.03144355  0.85257807  0.70543521     0.09800
H3702       H  0.02933027  0.81824823  0.70754851     0.11900
H3703       H  0.99038399  0.82331987  0.75461735     0.08500
H3704       H  0.99273607  0.85769306  0.75266893     0.11300
C3705       C  0.11057057  0.09965492  0.64133586    -0.03300
C3706       C  0.10516725  0.08394119  0.63043098    -0.05900
C3707       C  0.09301988  0.07008889  0.63797639    -0.21000
C3708       C  0.08626959  0.07144138  0.65667065     0.24700
C3709       C  0.09130021  0.08731319  0.66741538    -0.18600
C3710       C  0.10312398  0.10125553  0.65982370    -0.08500
C3711       C  0.07314119  0.05682482  0.66441043    -0.18800
C3712       C  0.07266813  0.05206898  0.68292347    -0.23600
C3713       C  0.05855367  0.03891679  0.69150666     0.26800
C3714       C  0.06312087  0.02916857  0.70817486    -0.20400
C3715       C  0.04967560  0.01792444  0.71750452    -0.10000
C3716       C  0.03098528  0.01675061  0.71090541    -0.10600
C3717       C  0.02668867  0.02601542  0.69374094    -0.03500
C3718       C  0.04025084  0.03699094  0.68423465    -0.18600
H3719       H  0.11051631  0.08207888  0.61619618     0.10500
H3720       H  0.08911687  0.05812652  0.62928924     0.10500
H3721       H  0.08573680  0.08924357  0.68158870     0.10200
H3722       H  0.10617687  0.11342672  0.66851844     0.11300
H3723       H  0.06392486  0.04962664  0.65455999     0.11400
H3724       H  0.08322882  0.05794944  0.69229607     0.13300
H3725       H  0.07714867  0.03032488  0.71406278     0.09800
H3726       H  0.05380435  0.01047456  0.73022390     0.11900
H3727       H  0.01295984  0.02482150  0.68735242     0.08500
H3728       H  0.03615746  0.04439969  0.67149089     0.11300
C3729       C  0.75197628  0.78908851  0.74454464    -0.03300
C3730       C  0.74979346  0.79723745  0.72650197    -0.05900
C3731       C  0.74949189  0.81692613  0.72421495    -0.21000
C3732       C  0.75151476  0.82895778  0.73984223     0.24700
C3733       C  0.75336166  0.82081318  0.75793096    -0.18600
C3734       C  0.75371564  0.80114735  0.76019554    -0.08500
C3735       C  0.75106448  0.84984670  0.73684905    -0.18800
C3736       C  0.75907765  0.86223990  0.74885363    -0.23600
C3737       C  0.75858224  0.88322429  0.74658972     0.26800
C3738       C  0.77094130  0.89413826  0.75751713    -0.20400
C3739       C  0.77049295  0.91389965  0.75672241    -0.10000
C3740       C  0.75757082  0.92332353  0.74500605    -0.10600
C3741       C  0.74525947  0.91244286  0.73391554    -0.03500
C3742       C  0.74569958  0.89262497  0.73472172    -0.18600
H3743       H  0.74871856  0.78843299  0.71404966     0.10500
H3744       H  0.74792645  0.82278252  0.71013415     0.10500
H3745       H  0.75422471  0.82951830  0.77045601     0.10200
H3746       H  0.75510353  0.79546468  0.77429641     0.11300
H3747       H  0.74459305  0.85495168  0.72395378     0.11400
H3748       H  0.76694502  0.85681009  0.76081158     0.13300
H3749       H  0.78094957  0.88733738  0.76685070     0.09800
H3750       H  0.78019885  0.92179052  0.76544935     0.11900
H3751       H  0.73507859  0.91923915  0.72477978     0.08500
H3752       H  0.73560785  0.88486794  0.72637796     0.11300
C3753       C  0.80004912  0.74761142  0.75073372    -0.03300
C3754       C  0.80867625  0.76536018  0.75292507    -0.05900
C3755       C  0.82837637  0.76693292  0.75334698    -0.21000
C3756       C  0.83988239  0.75083380  0.75152050     0.24700
C3757       C  0.83118248  0.73299609  0.74980383    -0.18600
C3758       C  0.81151366  0.73144784  0.74928619    -0.08500
C3759       C  0.86081002  0.75313905  0.75169625    -0.18800
C3760       C  0.87269636  0.74053929  0.74366137    -0.23600
C3761       C  0.89363712  0.74247517  0.74286879     0.26800
C3762       C  0.90360363  0.73081082  0.73024580    -0.20400
C3763       C  0.92324233  0.73161316  0.72898001    -0.10000
C3764       C  0.93357037  0.74409233  0.74039168    -0.10600
C3765       C  0.92367816  0.75578363  0.75314914    -0.03500
C3766       C  0.90390214  0.75496448  0.75443305    -0.18600
H3767       H  0.80022221  0.77809820  0.75391326     0.10500
H3768       H  0.83465942  0.78082104  0.75481904     0.10500
H3769       H  0.83942828  0.72012899  0.74914466     0.10200
H3770       H  0.80525714  0.71753026  0.74804553     0.11300
H3771       H  0.86635544  0.76610110  0.75766142     0.11400
H3772       H  0.86680893  0.72844722  0.73635011     0.13300
H3773       H  0.89614593  0.72098352  0.72124065     0.09800
H3774       H  0.93032774  0.72235144  0.71901242     0.11900
H3775       H  0.93121696  0.76543636  0.76225709     0.08500
H3776       H  0.89686072  0.76388872  0.76468898     0.11300
C3777       C  0.75126835  0.74295158  0.79324442    -0.03300
C3778       C  0.75029309  0.72530801  0.80244523    -0.05900
C3779       C  0.74908440  0.72424388  0.82218992    -0.21000
C3780       C  0.74892056  0.74075500  0.83319683     0.24700
C3781       C  0.74959895  0.75842413  0.82395202    -0.18600
C3782       C  0.75090819  0.75946225  0.80421937    -0.08500
C3783       C  0.74761694  0.73900620  0.85417224    -0.18800
C3784       C  0.75385764  0.75247221  0.86607197    -0.23600
C3785       C  0.75311444  0.75091170  0.88707750     0.26800
C3786       C  0.76499572  0.76260081  0.89772880    -0.20400
C3787       C  0.76452906  0.76209611  0.91749631    -0.10000
C3788       C  0.75203324  0.74994413  0.92714276    -0.10600
C3789       C  0.74008839  0.73822026  0.91650458    -0.03500
C3790       C  0.74055749  0.73872954  0.89669897    -0.18600
H3791       H  0.75076661  0.71229633  0.79439454     0.10500
H3792       H  0.74848669  0.71045486  0.82890444     0.10500
H3793       H  0.74879458  0.77150834  0.83182227     0.10200
H3794       H  0.75125080  0.77322424  0.79756652     0.11300
H3795       H  0.74230771  0.72574657  0.85985832     0.11400
H3796       H  0.76073312  0.76493790  0.86025905     0.13300
H3797       H  0.77472623  0.77219224  0.89071229     0.09800
H3798       H  0.77392948  0.77131037  0.92521333     0.11900
H3799       H  0.73019506  0.72877544  0.92347877     0.08500
H3800       H  0.73078578  0.72986580  0.88908430     0.11300
C3801       C  0.73690161  0.72119354  0.72687840    -0.03300
C3802       C  0.74531423  0.70700914  0.71561377    -0.05900
C3803       C  0.73430463  0.69515737  0.70436397    -0.21000
C3804       C  0.71460569  0.69707385  0.70383998     0.24700
C3805       C  0.70602039  0.71085758  0.71537835    -0.18600
C3806       C  0.71703453  0.72267404  0.72675748    -0.08500
C3807       C  0.70377139  0.68412657  0.69130965    -0.18800
C3808       C  0.68633325  0.68780514  0.68461739    -0.23600
C3809       C  0.67627320  0.67527979  0.67098034     0.26800
C3810       C  0.65664990  0.67710451  0.66903303    -0.20400
C3811       C  0.64675232  0.66582896  0.65620292    -0.10000
C3812       C  0.65618161  0.65250332  0.64469915    -0.10600
C3813       C  0.67593249  0.65086407  0.64658894    -0.03500
C3814       C  0.68580220  0.66212401  0.65942270    -0.18600
H3815       H  0.76032414  0.70461655  0.71536237     0.10500
H3816       H  0.74129803  0.68447911  0.69584465     0.10500
H3817       H  0.69084051  0.71242852  0.71592095     0.10200
H3818       H  0.71000361  0.73311902  0.73552189     0.11300
H3819       H  0.71095352  0.67127861  0.68698460     0.11400
H3820       H  0.67905369  0.70056682  0.68907517     0.13300
H3821       H  0.64889480  0.68721089  0.67758694     0.09800
H3822       H  0.63157883  0.66746549  0.65527986     0.11900
H3823       H  0.68411618  0.64090059  0.63845577     0.08500
H3824       H  0.70096980  0.66058590  0.65990338     0.11300
C3825       C  0.92635404  0.99749175  0.98056697    -0.03300
C3826       C  0.91723857  0.00796670  0.96637585    -0.05900
C3827       C  0.89759596  0.00976095  0.96648230    -0.21000
C3828       C  0.88672777  0.00138781  0.98089789     0.24700
C3829       C  0.89578213  0.99063577  0.99491116    -0.18600
C3830       C  0.91539060  0.98871573  0.99473705    -0.08500
C3831       C  0.86594043  0.00332700  0.98042573    -0.18800
C3832       C  0.85501642  0.00273606  0.99608794    -0.23600
C3833       C  0.83413575  0.00344227  0.99534782     0.26800
C3834       C  0.82388945  0.01025554  0.01095369    -0.20400
C3835       C  0.80413360  0.01045763  0.01078045    -0.10000
C3836       C  0.79417195  0.00369039  0.99499383    -0.10600
C3837       C  0.80462959  0.99661462  0.97954376    -0.03500
C3838       C  0.82428150  0.99645846  0.97971479    -0.18600
H3839       H  0.92526919  0.01482263  0.95520695     0.10500
H3840       H  0.89087690  0.01788661  0.95539093     0.10500
H3841       H  0.88775999  0.98343312  0.00584863     0.10200
H3842       H  0.92195792  0.98043198  0.00579447     0.11300
H3843       H  0.85954562  0.00592842  0.96674985     0.11400
H3844       H  0.86153127  0.00216186  0.00993574     0.13300
H3845       H  0.83119214  0.01538519  0.02333579     0.09800
H3846       H  0.79679003  0.01549185  0.02325469     0.11900
H3847       H  0.79792311  0.99100761  0.96717065     0.08500
H3848       H  0.83166844  0.99039042  0.96771986     0.11300
C3849       C  0.74653742  0.00292635  0.95098372    -0.03300
C3850       C  0.72917431  0.00395463  0.94157488    -0.05900
C3851       C  0.72865170  0.00411461  0.92177992    -0.21000
C3852       C  0.74543888  0.00312134  0.91111700     0.24700
C3853       C  0.76278929  0.00264817  0.92060620    -0.18600
C3854       C  0.76327624  0.00252839  0.94029417    -0.08500
C3855       C  0.74453446  0.00336676  0.89017796    -0.18800
C3856       C  0.75814292  0.99579444  0.87912140    -0.23600
C3857       C  0.75780965  0.99651247  0.85817861     0.26800
C3858       C  0.76817096  0.98302991  0.84787905    -0.20400
C3859       C  0.76831020  0.98335844  0.82810721    -0.10000
C3860       C  0.75814047  0.99728096  0.81827285    -0.10600
C3861       C  0.74813669  0.01104375  0.82861299    -0.03500
C3862       C  0.74803239  0.01073045  0.84834043    -0.18600
H3863       H  0.71603442  0.00431296  0.94950230     0.10500
H3864       H  0.71511527  0.00477008  0.91477725     0.10500
H3865       H  0.77605947  0.00279888  0.91292493     0.10200
H3866       H  0.77682349  0.00259347  0.94712561     0.11300
H3867       H  0.73196555  0.00933293  0.88380566     0.11400
H3868       H  0.76970742  0.98810311  0.88557770     0.13300
H3869       H  0.77603204  0.97209334  0.85515849     0.09800
H3870       H  0.77622208  0.97261432  0.82054455     0.11900
H3871       H  0.74040557  0.02215201  0.82146348     0.08500
H3872       H  0.74051776  0.02181823  0.85576815     0.11300
C3873       C  0.74745124  0.82318572  0.00250084    -0.03300
C3874       C  0.73630227  0.83223560  0.01633517    -0.05900
C3875       C  0.73500015  0.85192885  0.01687973    -0.21000
C3876       C  0.74486273  0.86309683  0.00371271     0.24700
C3877       C  0.75588093  0.85408422  0.98969282    -0.18600
C3878       C  0.75722549  0.83432770  0.98917082    -0.08500
C3879       C  0.74272692  0.88398900  0.00474675    -0.18800
C3880       C  0.75539055  0.89618403  0.99735723    -0.23600
C3881       C  0.75340411  0.91711608  0.99816984     0.26800
C3882       C  0.76941375  0.92820239  0.99436320    -0.20400
C3883       C  0.76821989  0.94790688  0.99416011    -0.10000
C3884       C  0.75091693  0.95701703  0.99762308    -0.10600
C3885       C  0.73488160  0.94601722  0.00165641    -0.03500
C3886       C  0.73605679  0.92625237  0.00183446    -0.18600
H3887       H  0.72853661  0.82410348  0.02681033     0.10500
H3888       H  0.72629556  0.85847340  0.02771180     0.10500
H3889       H  0.76318765  0.86213375  0.97886614     0.10200
H3890       H  0.76574676  0.82778542  0.97820476     0.11300
H3891       H  0.73069044  0.88934121  0.01265698     0.11400
H3892       H  0.76823054  0.89070311  0.99093357     0.13300
H3893       H  0.78293711  0.92158506  0.99149330     0.09800
H3894       H  0.78092986  0.95599300  0.99140068     0.11900
H3895       H  0.72130869  0.95266893  0.00411763     0.08500
H3896       H  0.72322933  0.91832819  0.00431617     0.11300
C3897       C  0.72889654  0.02151922  0.01905927    -0.03300
C3898       C  0.73299878  0.01944979  0.03842344    -0.05900
C3899       C  0.72290223  0.02948043  0.05216889    -0.21000
C3900       C  0.70822339  0.04170554  0.04701556     0.24700
C3901       C  0.70405753  0.04394131  0.02771968    -0.18600
C3902       C  0.71420566  0.03395581  0.01392625    -0.08500
C3903       C  0.69824982  0.05254416  0.06206174    -0.18800
C3904       C  0.68073290  0.05970273  0.06009454    -0.23600
C3905       C  0.67114279  0.07122970  0.07488899     0.26800
C3906       C  0.65139272  0.07248113  0.07490568    -0.20400
C3907       C  0.64193491  0.08377315  0.08814217    -0.10000
C3908       C  0.65197276  0.09455382  0.10146141    -0.10600
C3909       C  0.67182880  0.09300719  0.10154802    -0.03500
C3910       C  0.68126003  0.08161151  0.08838504    -0.18600
H3911       H  0.74417936  0.01002521  0.04291977     0.10500
H3912       H  0.72654287  0.02761945  0.06691649     0.10500
H3913       H  0.69323646  0.05369150  0.02311932     0.10200
H3914       H  0.71029953  0.03625406  0.99941044     0.11300
H3915       H  0.70545649  0.05406859  0.07546393     0.11400
H3916       H  0.67278160  0.05658692  0.04741431     0.13300
H3917       H  0.64323037  0.06466176  0.06465055     0.09800
H3918       H  0.62665453  0.08430012  0.08783681     0.11900
H3919       H  0.68040094  0.10031021  0.11170604     0.08500
H3920       H  0.69652286  0.08135610  0.08862950     0.11300
loop_ 
_geom_bond_atom_site_label_1 
_geom_bond_atom_site_label_2 
_geom_bond_distance 
_geom_bond_site_symmetry_2 
_ccdc_geom_bond_type 
C1            C2   1.542       .  S
C1            C7   1.539   1_545  S
C1            C5   1.545   1_554  S
C1         C3897   1.528       .  S
C2            H9   1.085       .  S
C2            C3   1.370   1_554  D
C3            C4   1.539   1_545  S
C3         C3836   1.495       .  S
C4            C8   1.534       .  S
C4            C6   1.535   1_565  S
C4           H10   1.105       .  S
C5           H11   1.081       .  S
C5            C6   1.364       .  D
C6         C3849   1.481       .  S
C7           H12   1.086       .  S
C7            C8   1.365   1_554  D
C8         C3884   1.483       .  S
C13          C14   1.540       .  S
C13          C19   1.535       .  S
C13          C17   1.548       .  S
C13        C3801   1.535       .  S
C14          H21   1.086       .  S
C14          C15   1.369       .  D
C15          C16   1.542       .  S
C15        C3729   1.492       .  S
C16          C20   1.542       .  S
C16          C18   1.537       .  S
C16          H22   1.109       .  S
C17          H23   1.081       .  S
C17          C18   1.368       .  D
C18        C3753   1.487       .  S
C19          H24   1.086       .  S
C19          C20   1.366       .  D
C20        C3777   1.488       .  S
C25          C26   1.540   1_545  S
C25          C31   1.547       .  S
C25          C29   1.549   1_455  S
C25        C3716   1.535       .  S
C26          H33   1.086       .  S
C26          C27   1.369       .  D
C27          C28   1.536   1_455  S
C27        C3681   1.486       .  S
C28          C32   1.537   1_655  S
C28          C30   1.529       .  S
C28          H34   1.107       .  S
C29          H35   1.083       .  S
C29          C30   1.363   1_545  D
C30        C3657   1.475   1_565  S
C31          H36   1.085       .  S
C31          C32   1.370   1_545  D
C32        C3644   1.493       .  S
C37          C38   1.545       .  S
C37          C43   1.540       .  S
C37          C41   1.538       .  S
C37        C3561   1.528       .  S
C38          H45   1.081       .  S
C38          C39   1.366       .  D
C39          C40   1.536       .  S
C39        C3537   1.483       .  S
C40          C44   1.534       .  S
C40          C42   1.541       .  S
C40          H46   1.108       .  S
C41          H47   1.085       .  S
C41          C42   1.370       .  D
C42        C3596   1.493       .  S
C43          H48   1.086       .  S
C43          C44   1.362       .  D
C44        C3609   1.475       .  S
O49          C65   1.275       .  A
O49         Zn55   2.024       .  S
C50          O66   1.275       .  A
C50          O63   1.275       .  A
C50        C3476   1.482       .  S
O51          C64   1.273       .  A
O51         Cd58   2.055       .  S
O52          C70   1.275       .  A
O52         Cd61   2.076       .  S
O53          C67   1.276       .  A
O53         Cd57   2.068       .  S
O54          C65   1.275       .  A
O54         Cd57   2.071       .  S
Zn55         O66   2.022       .  S
Zn55         O68   2.017       .  S
Zn55         O60   1.950       .  S
O56          C67   1.276       .  A
O56         Cd61   2.067       .  S
Cd57         O59   2.080       .  S
Cd57         O60   2.001       .  S
Cd58         O62   2.065       .  S
Cd58         O71   2.071       .  S
Cd58         O60   1.995       .  S
O59          C69   1.276       .  A
O60         Cd61   1.999       .  S
Cd61         O63   2.066       .  S
O62          C69   1.275       .  A
C64          O68   1.275       .  A
C64        C3620   1.478       .  S
C65        C3489   1.485       .  S
C67        C3452   1.480       .  S
C69        C3524   1.484       .  S
C70          O71   1.275       .  A
C70        C3417   1.485       .  S
C72          C73   1.539       .  S
C72          C78   1.554       .  S
C72          C76   1.540       .  S
C72        C3393   1.535       .  S
C73          H80   1.086       .  S
C73          C74   1.366       .  D
C74          C75   1.534       .  S
C74        C3465   1.486       .  S
C75          C79   1.535       .  S
C75          C77   1.536       .  S
C75          H81   1.107       .  S
C76          H82   1.086       .  S
C76          C77   1.367       .  D
C77        C3345   1.486       .  S
C78          H83   1.082       .  S
C78          C79   1.372       .  D
C79        C3380   1.491       .  S
C84          C85   1.549   1_554  S
C84          C90   1.541       .  S
C84          C88   1.540       .  S
C84        C3321   1.535       .  S
C85          H92   1.080       .  S
C85          C86   1.368       .  D
C86          C87   1.536       .  S
C86        C3500   1.490       .  S
C87          C91   1.536   1_556  S
C87          C89   1.536   1_556  S
C87          H93   1.108       .  S
C88          H94   1.086       .  S
C88          C89   1.367       .  D
C89        C3273   1.485       .  S
C90          H95   1.086       .  S
C90          C91   1.367       .  D
C91        C3297   1.485       .  S
O96         C112   1.277   1_556  A
O96        Zn102   2.036       .  S
C97         O113   1.276   1_554  A
C97         O110   1.276       .  A
C97        C3225   1.484   1_554  S
O98         C111   1.274       .  A
O98        Cd105   2.068       .  S
O99         C117   1.278       .  A
O99        Cd108   2.083       .  S
O100        C114   1.275       .  A
O100       Cd104   2.066       .  S
O101        C112   1.273       .  A
O101       Cd104   2.051       .  S
Zn102       O113   2.024       .  S
Zn102       O115   2.029       .  S
Zn102       O107   1.955   1_556  S
O103        C114   1.278       .  A
O103       Cd108   2.095       .  S
Cd104       O106   2.064       .  S
Cd104       O107   1.991       .  S
Cd105       O109   2.081       .  S
Cd105       O118   2.071       .  S
Cd105       O107   2.005   1_556  S
O106        C116   1.275       .  A
O107       Cd108   2.007       .  S
Cd108       O110   2.074       .  S
O109        C116   1.276   1_556  A
C111        O115   1.276       .  A
C111       C3788   1.485       .  S
C112       C3873   1.482       .  S
C114       C3249   1.489       .  S
C116       C3212   1.484       .  S
C117        O118   1.276   1_554  A
C117       C3177   1.486   1_554  S
C119        C120   1.530       .  S
C119        C125   1.543       .  S
C119        C123   1.534       .  S
C119       C3081   1.530       .  S
C120        H127   1.086       .  S
C120        C121   1.365       .  D
C121        C122   1.543       .  S
C121       C3105   1.484       .  S
C122        C126   1.541       .  S
C122        C124   1.543       .  S
C122        H128   1.110       .  S
C123        H129   1.086       .  S
C123        C124   1.368       .  D
C124       C3153   1.487       .  S
C125        H130   1.081       .  S
C125        C126   1.368       .  D
C126       C3140   1.486       .  S
C131        C132   1.546   1_655  S
C131        C137   1.540       .  S
C131        C135   1.541       .  S
C131       C3129   1.534       .  S
C132        H139   1.080       .  S
C132        C133   1.366       .  D
C133        C134   1.536       .  S
C133       C3068   1.485       .  S
C134        C138   1.541       .  S
C134        C136   1.536   1_455  S
C134        H140   1.109       .  S
C135        H141   1.086       .  S
C135        C136   1.365       .  D
C136       C3033   1.478       .  S
C137        H142   1.085       .  S
C137        C138   1.370   1_655  D
C138       C3020   1.493       .  S
C143        C144   1.546   1_556  S
C143        C149   1.540       .  S
C143        C147   1.539       .  S
C143       C3116   1.532       .  S
C144        H151   1.080       .  S
C144        C145   1.365       .  D
C145        C146   1.538       .  S
C145       C2985   1.488       .  S
C146        C150   1.538   1_554  S
C146        C148   1.539   1_554  S
C146        H152   1.108       .  S
C147        H153   1.086       .  S
C147        C148   1.368       .  D
C148       C2961   1.491       .  S
C149        H154   1.086       .  S
C149        C150   1.367       .  D
C150       C3188   1.484       .  S
C155        C156   1.537       .  S
C155        C161   1.543       .  S
C155        C159   1.547   1_545  S
C155       C2937   1.530       .  S
C156        H163   1.086       .  S
C156        C157   1.364   1_545  D
C157        C158   1.539       .  S
C157       C2900   1.486       .  S
C158        C162   1.541       .  S
C158        C160   1.534       .  S
C158        H164   1.107       .  S
C159        H165   1.080       .  S
C159        C160   1.365       .  D
C160       C2924   1.483       .  S
C161        H166   1.085       .  S
C161        C162   1.371   1_545  D
C162       C2865   1.496       .  S
C167        C168   1.532       .  S
C167        C173   1.540       .  S
C167        C171   1.533       .  S
C167       C3572   1.529       .  S
C168        H175   1.087       .  S
C168        C169   1.365       .  D
C169        C170   1.544       .  S
C169       C2841   1.486       .  S
C170        C174   1.541       .  S
C170        C172   1.551       .  S
C170        H176   1.109       .  S
C171        H177   1.085       .  S
C171        C172   1.371       .  D
C172       C3705   1.500       .  S
C173        H178   1.081       .  S
C173        C174   1.365       .  D
C174       C2948   1.479       .  S
C179        C180   1.548       .  S
C179        C185   1.536   1_456  S
C179        C183   1.539       .  S
C179       C2817   1.527   1_556  S
C180        H187   1.082       .  S
C180        C181   1.370       .  D
C181        C182   1.536   1_455  S
C181       C2793   1.486       .  S
C182        C186   1.537       .  S
C182        C184   1.534   1_655  S
C182        H188   1.108       .  S
C183        H189   1.086   1_556  S
C183        C184   1.364       .  D
C184       C2769   1.478       .  S
C185        H190   1.086       .  S
C185        C186   1.365   1_554  D
C186       C3236   1.487       .  S
C191        C192   1.540       .  S
C191        C197   1.544   1_554  S
C191        C195   1.549       .  S
C191       C2732   1.533       .  S
C192        H199   1.086       .  S
C192        C193   1.364       .  D
C193        C194   1.533   1_554  S
C193       C2756   1.481       .  S
C194        C198   1.541       .  S
C194        C196   1.533   1_556  S
C194        H200   1.104       .  S
C195        H201   1.081       .  S
C195        C196   1.365       .  D
C196       C2673   1.484   1_554  S
C197        H202   1.084       .  S
C197        C198   1.373       .  D
C198       C2697   1.504       .  S
C203        C204   1.543       .  S
C203        C209   1.544       .  S
C203        C207   1.545       .  S
C203       C2660   1.533       .  S
C204        H211   1.086       .  S
C204        C205   1.367       .  D
C205        C206   1.537       .  S
C205       C2577   1.490       .  S
C206        C210   1.533       .  S
C206        C208   1.538       .  S
C206        H212   1.108       .  S
C207        H213   1.080       .  S
C207        C208   1.367       .  D
C208       C2601   1.488       .  S
C209        H214   1.086       .  S
C209        C210   1.366       .  D
C210       C2625   1.480       .  S
C215        C216   1.538       .  S
C215        C221   1.530       .  S
C215        C219   1.534       .  S
C215       C2828   1.529       .  S
C216        H223   1.080       .  S
C216        C217   1.369       .  D
C217        C218   1.549       .  S
C217       C2649   1.492       .  S
C218        C222   1.548       .  S
C218        C220   1.542       .  S
C218        H224   1.110       .  S
C219        H225   1.087       .  S
C219        C220   1.365       .  D
C220       C2721   1.479       .  S
C221        H226   1.086       .  S
C221        C222   1.367       .  D
C222       C2553   1.491       .  S
C227        C228   1.544       .  S
C227        C233   1.545       .  S
C227        C231   1.536       .  S
C227       C2481   1.533       .  S
C228        H235   1.081       .  S
C228        C229   1.365       .  D
C229        C230   1.537       .  S
C229       C2529   1.484       .  S
C230        C234   1.543       .  S
C230        C232   1.536       .  S
C230        H236   1.106       .  S
C231        H237   1.086       .  S
C231        C232   1.363       .  D
C232       C2516   1.479       .  S
C233        H238   1.084       .  S
C233        C234   1.374       .  D
C234       C2457   1.501       .  S
O239        C255   1.275       .  A
O239       Zn245   2.020       .  S
C240        O256   1.276       .  A
C240        O253   1.273       .  A
C240       C2913   1.481       .  S
O241        C254   1.275       .  A
O241       Cd248   2.062       .  S
O242        C260   1.276       .  A
O242       Cd251   2.067       .  S
O243        C257   1.274       .  A
O243       Cd247   2.061       .  S
O244        C255   1.273       .  A
O244       Cd247   2.053       .  S
Zn245       O256   2.026       .  S
Zn245       O258   2.024       .  S
Zn245       O250   1.952       .  S
O246        C257   1.276       .  A
O246       Cd251   2.079       .  S
Cd247       O249   2.064       .  S
Cd247       O250   1.989       .  S
Cd248       O252   2.081       .  S
Cd248       O261   2.077       .  S
Cd248       O250   2.001       .  S
O249        C259   1.274       .  A
O250       Cd251   1.996       .  S
Cd251       O253   2.061       .  S
O252        C259   1.276       .  A
C254        O258   1.276       .  A
C254       C2540   1.481       .  S
C255       C2612   1.478       .  S
C257       C2433   1.483       .  S
C259       C2385   1.484       .  S
C260        O261   1.276       .  A
C260       C2420   1.484       .  S
O262        C278   1.277       .  A
O262       Zn268   2.041       .  S
C263        O279   1.277       .  A
C263        O276   1.276       .  A
C263       C2708   1.486       .  S
O264        C277   1.273       .  A
O264       Cd271   2.054       .  S
O265        C283   1.277       .  A
O265       Cd274   2.089       .  S
O266        C280   1.275       .  A
O266       Cd270   2.067       .  S
O267        C278   1.275       .  A
O267       Cd270   2.063       .  S
Zn268       O279   2.029       .  S
Zn268       O281   2.037       .  S
Zn268       O273   1.956       .  S
O269        C280   1.276       .  A
O269       Cd274   2.077       .  S
Cd270       O272   2.078       .  S
Cd270       O273   1.998       .  S
Cd271       O275   2.062       .  S
Cd271       O284   2.063       .  S
Cd271       O273   1.994       .  S
O272        C282   1.276       .  A
O273       Cd274   2.006       .  S
Cd274       O276   2.074       .  S
O275        C282   1.273       .  A
C277        O281   1.277       .  A
C277       C3585   1.481       .  S
C278       C3356   1.486       .  S
C280       C2361   1.483       .  S
C282       C2337   1.482       .  S
C283        O284   1.275       .  A
C283       C3057   1.486       .  S
O285        C301   1.278   1_655  A
O285       Zn291   2.044       .  S
C286        O302   1.279   1_455  A
C286        O299   1.274       .  A
C286       C3692   1.486       .  S
O287        C300   1.275       .  A
O287       Cd294   2.057       .  S
O288        C306   1.276       .  A
O288       Cd297   2.072       .  S
O289        C303   1.273       .  A
O289       Cd293   2.054       .  S
O290        C301   1.273       .  A
O290       Cd293   2.046       .  S
Zn291       O302   2.050       .  S
Zn291       O304   2.047       .  S
Zn291       O296   1.967   1_655  S
O292        C303   1.276       .  A
O292       Cd297   2.079       .  S
Cd293       O295   2.064       .  S
Cd293       O296   1.989       .  S
Cd294       O298   2.081       .  S
Cd294       O307   2.071       .  S
Cd294       O296   1.996   1_655  S
O295        C305   1.274       .  A
O296       Cd297   1.999       .  S
Cd297       O299   2.056       .  S
O298        C305   1.276   1_655  A
C300        O304   1.278       .  A
C300       C3764   1.486       .  S
C301       C2804   1.482       .  S
C303       C2324   1.481       .  S
C305       C3044   1.485       .  S
C306        O307   1.276   1_455  A
C306       C2300   1.483       .  S
C308        C309   1.539       .  S
C308        C314   1.543       .  S
C308        C312   1.550       .  S
C308       C2265   1.532       .  S
C309        H316   1.086       .  S
C309        C310   1.360       .  D
C310        C311   1.530       .  S
C310       C2372   1.476       .  S
C311        C315   1.540       .  S
C311        C313   1.534       .  S
C311        H317   1.107       .  S
C312        H318   1.082       .  S
C312        C313   1.370       .  D
C313       C2409   1.484       .  S
C314        H319   1.085       .  S
C314        C315   1.370       .  D
C315       C2313   1.495       .  S
O320        C336   1.278       .  A
O320       Zn326   2.043       .  S
C321        O337   1.277       .  A
C321        O334   1.273       .  A
C321       C2169   1.483       .  S
O322        C335   1.273       .  A
O322       Cd329   2.054       .  S
O323        C341   1.275       .  A
O323       Cd332   2.070       .  S
O324        C338   1.277       .  A
O324       Cd328   2.081       .  S
O325        C336   1.275       .  A
O325       Cd328   2.062       .  S
Zn326       O337   2.040       .  S
Zn326       O339   2.032       .  S
Zn326       O331   1.960       .  S
O327        C338   1.275       .  A
O327       Cd332   2.066       .  S
Cd328       O330   2.083       .  S
Cd328       O331   2.000       .  S
Cd329       O333   2.066       .  S
Cd329       O342   2.067       .  S
Cd329       O331   1.995       .  S
O330        C340   1.277       .  A
O331       Cd332   1.995       .  S
Cd332       O334   2.057       .  S
O333        C340   1.275       .  A
C335        O339   1.276       .  A
C335       C2193   1.481       .  S
C336       C2217   1.486       .  S
C338       C2252   1.485       .  S
C340       C2588   1.485       .  S
C341        O342   1.274       .  A
C341       C2505   1.482       .  S
C343        C344   1.540       .  S
C343        C349   1.530       .  S
C343        C347   1.533       .  S
C343       C2097   1.531       .  S
C344        H351   1.080       .  S
C344        C345   1.367       .  D
C345        C346   1.545       .  S
C345       C2132   1.490       .  S
C346        C350   1.550       .  S
C346        C348   1.547       .  S
C346        H352   1.110       .  S
C347        H353   1.086       .  S
C347        C348   1.367       .  D
C348       C2145   1.488       .  S
C349        H354   1.086       .  S
C349        C350   1.368       .  D
C350       C2276   1.491       .  S
C355        C356   1.540       .  S
C355        C361   1.548   1_565  S
C355        C359   1.540       .  S
C355       C2156   1.535       .  S
C356        H363   1.085       .  S
C356        C357   1.369   1_565  D
C357        C358   1.541       .  S
C357       C2060   1.494       .  S
C358        C362   1.536       .  S
C358        C360   1.539       .  S
C358        H364   1.107       .  S
C359        H365   1.086       .  S
C359        C360   1.367   1_565  D
C360       C2073   1.487   1_545  S
C361        H366   1.080       .  S
C361        C362   1.367       .  D
C362       C3513   1.486       .  S
C367        C368   1.543       .  S
C367        C373   1.541   1_556  S
C367        C371   1.549       .  S
C367       C2121   1.532       .  S
C368        H375   1.085       .  S
C368        C369   1.369       .  D
C369        C370   1.538   1_556  S
C369       C3201   1.498       .  S
C370        C374   1.536       .  S
C370        C372   1.535   1_554  S
C370        H376   1.107       .  S
C371        H377   1.082       .  S
C371        C372   1.370       .  D
C372       C2036   1.485       .  S
C373        H378   1.086       .  S
C373        C374   1.363       .  D
C374       C2228   1.481       .  S
C379        C380   1.548       .  S
C379        C385   1.551       .  S
C379        C383   1.540       .  S
C379       C1977   1.542       .  S
C380        H387   1.084       .  S
C380        C381   1.377       .  D
C381        C382   1.543       .  S
C381       C1964   1.509       .  S
C382        C386   1.535       .  S
C382        C384   1.533       .  S
C382        H388   1.103       .  S
C383        H389   1.086       .  S
C383        C384   1.364       .  D
C384       C2001   1.483       .  S
C385        H390   1.080       .  S
C385        C386   1.366       .  D
C386       C1929   1.489       .  S
O391        C407   1.280       .  A
O391       Zn397   2.061       .  S
C392        O408   1.280       .  A
C392        O405   1.275       .  A
C392       C1916   1.486       .  S
O393        C406   1.273       .  A
O393       Cd400   2.048       .  S
O394        C412   1.276       .  A
O394       Cd403   2.074       .  S
O395        C409   1.275       .  A
O395       Cd399   2.069       .  S
O396        C407   1.273       .  A
O396       Cd399   2.046       .  S
Zn397       O408   2.058       .  S
Zn397       O410   2.066       .  S
Zn397       O402   1.976       .  S
O398        C409   1.277       .  A
O398       Cd403   2.087       .  S
Cd399       O401   2.070       .  S
Cd399       O402   1.991       .  S
Cd400       O404   2.074       .  S
Cd400       O413   2.067       .  S
Cd400       O402   1.996       .  S
O401        C411   1.274       .  A
O402       Cd403   2.003       .  S
Cd403       O405   2.058       .  S
O404        C411   1.275       .  A
C406        O410   1.280       .  A
C406       C1953   1.489       .  S
C407       C1892   1.487       .  S
C409       C2996   1.487       .  S
C411       C1857   1.485       .  S
C412        O413   1.275       .  A
C412       C1844   1.483       .  S
C414        C415   1.541       .  S
C414        C420   1.550       .  S
C414        C418   1.539       .  S
C414       C1785   1.533       .  S
C415        H422   1.086       .  S
C415        C416   1.367       .  D
C416        C417   1.535       .  S
C416       C1761   1.486       .  S
C417        C421   1.534       .  S
C417        C419   1.535       .  S
C417        H423   1.107       .  S
C418        H424   1.086       .  S
C418        C419   1.366       .  D
C419       C1809   1.485       .  S
C420        H425   1.081       .  S
C420        C421   1.370       .  D
C421       C1881   1.488       .  S
O426        C442   1.275       .  A
O426       Zn432   2.025       .  S
C427        O443   1.275       .  A
C427        O440   1.273   1_565  A
C427       C3860   1.478       .  S
O428        C441   1.275       .  A
O428       Cd435   2.076       .  S
O429        C447   1.277   1_545  A
O429       Cd438   2.079       .  S
O430        C444   1.275       .  A
O430       Cd434   2.071       .  S
O431        C442   1.273   1_545  A
O431       Cd434   2.059       .  S
Zn432       O443   2.023       .  S
Zn432       O445   2.025       .  S
Zn432       O437   1.951       .  S
O433        C444   1.276       .  A
O433       Cd438   2.078       .  S
Cd434       O436   2.063       .  S
Cd434       O437   1.996   1_545  S
Cd435       O439   2.075       .  S
Cd435       O448   2.077       .  S
Cd435       O437   2.001       .  S
O436        C446   1.275   1_545  A
O437       Cd438   2.000   1_565  S
Cd438       O440   2.052       .  S
O439        C446   1.276       .  A
C441        O445   1.275       .  A
C441       C3740   1.486       .  S
C442       C3668   1.482       .  S
C444       C1737   1.485       .  S
C446       C1724   1.482       .  S
C447        O448   1.277       .  A
C447       C2084   1.487       .  S
C449        C450   1.547       .  S
C449        C455   1.539       .  S
C449        C453   1.548       .  S
C449       C3164   1.532       .  S
C450        H457   1.086       .  S
C450        C451   1.368       .  D
C451        C452   1.532       .  S
C451       C1748   1.483       .  S
C452        C456   1.533       .  S
C452        C454   1.535       .  S
C452        H458   1.108       .  S
C453        H459   1.082       .  S
C453        C454   1.369       .  D
C454       C1700   1.486       .  S
C455        H460   1.086       .  S
C455        C456   1.365       .  D
C456       C3441   1.482       .  S
O461        C477   1.279       .  A
O461       Zn467   2.057       .  S
C462        O478   1.279       .  A
C462        O475   1.274       .  A
C462       C1689   1.486       .  S
O463        C476   1.273       .  A
O463       Cd470   2.051       .  S
O464        C482   1.275       .  A
O464       Cd473   2.073       .  S
O465        C479   1.275       .  A
O465       Cd469   2.065       .  S
O466        C477   1.274       .  A
O466       Cd469   2.059       .  S
Zn467       O478   2.048       .  S
Zn467       O480   2.044       .  S
Zn467       O472   1.960       .  S
O468        C479   1.274       .  A
O468       Cd473   2.062       .  S
Cd469       O471   2.074       .  S
Cd469       O472   1.997       .  S
Cd470       O474   2.066       .  S
Cd470       O483   2.068       .  S
Cd470       O472   1.995       .  S
O471        C481   1.275       .  A
O472       Cd473   1.998       .  S
Cd473       O475   2.058       .  S
O474        C481   1.275       .  A
C476        O480   1.279       .  A
C476       C1628   1.483       .  S
C477       C1652   1.488       .  S
C479       C1676   1.478       .  S
C481       C1820   1.482       .  S
C482        O483   1.274       .  A
C482       C2012   1.484       .  S
C484        C485   1.535       .  S
C484        C490   1.540       .  S
C484        C488   1.532       .  S
C484       C1521   1.535       .  S
C485        H492   1.086       .  S
C485        C486   1.370       .  D
C486        C487   1.548       .  S
C486       C1556   1.493       .  S
C487        C491   1.546       .  S
C487        C489   1.545       .  S
C487        H493   1.109       .  S
C488        H494   1.086       .  S
C488        C489   1.368       .  D
C489       C1593   1.489       .  S
C490        H495   1.080       .  S
C490        C491   1.367       .  D
C491       C1569   1.494       .  S
C496        C497   1.543   1_565  S
C496        C502   1.550       .  S
C496        C500   1.539       .  S
C496       C1580   1.536       .  S
C497        H504   1.086       .  S
C497        C498   1.368       .  D
C498        C499   1.536       .  S
C498       C1641   1.491       .  S
C499        C503   1.540   1_545  S
C499        C501   1.533   1_545  S
C499        H505   1.104       .  S
C500        H506   1.086       .  S
C500        C501   1.362       .  D
C501       C1713   1.479       .  S
C502        H507   1.079       .  S
C502        C503   1.375       .  D
C503       C1508   1.499       .  S
C508        C509   1.549       .  S
C508        C514   1.544       .  S
C508        C512   1.545   1_655  S
C508       C1545   1.537       .  S
C509        H516   1.081       .  S
C509        C510   1.363       .  D
C510        C511   1.531   1_655  S
C510       C2289   1.481   1_655  S
C511        C515   1.536   1_455  S
C511        C513   1.533       .  S
C511        H517   1.109       .  S
C512        H518   1.086       .  S
C512        C513   1.368       .  D
C513       C2444   1.484       .  S
C514        H519   1.086       .  S
C514        C515   1.370       .  D
C515       C1484   1.490       .  S
C520        C521   1.538       .  S
C520        C526   1.550       .  S
C520        C524   1.541       .  S
C520       C1604   1.532       .  S
C521        H528   1.086       .  S
C521        C522   1.366       .  D
C522        C523   1.536       .  S
C522       C2180   1.483       .  S
C523        C527   1.534       .  S
C523        C525   1.536       .  S
C523        H529   1.109       .  S
C524        H530   1.086       .  S
C524        C525   1.368       .  D
C525       C1833   1.485       .  S
C526        H531   1.081       .  S
C526        C527   1.366       .  D
C527       C3260   1.485       .  S
C532        C533   1.535       .  S
C532        C538   1.548       .  S
C532        C536   1.543       .  S
C532       C1460   1.531       .  S
C533        H540   1.086       .  S
C533        C534   1.361       .  D
C534        C535   1.537       .  S
C534       C2396   1.482       .  S
C535        C539   1.537       .  S
C535        C537   1.543       .  S
C535        H541   1.104       .  S
C536        H542   1.084       .  S
C536        C537   1.373       .  D
C537       C2348   1.500       .  S
C538        H543   1.081       .  S
C538        C539   1.368       .  D
C539       C1425   1.490       .  S
O544        C560   1.276       .  A
O544       Zn550   2.034       .  S
C545        O561   1.276   1_556  A
C545        O558   1.275       .  A
C545       C2972   1.484       .  S
O546        C559   1.275       .  A
O546       Cd553   2.066       .  S
O547        C565   1.278       .  A
O547       Cd556   2.085       .  S
O548        C562   1.275   1_554  A
O548       Cd552   2.073       .  S
O549        C560   1.274       .  A
O549       Cd552   2.066       .  S
Zn550       O561   2.029       .  S
Zn550       O563   2.034       .  S
Zn550       O555   1.959   1_554  S
O551        C562   1.277       .  A
O551       Cd556   2.078       .  S
Cd552       O554   2.070       .  S
Cd552       O555   2.001   1_554  S
Cd553       O557   2.079       .  S
Cd553       O566   2.083       .  S
Cd553       O555   2.002       .  S
O554        C564   1.275   1_554  A
O555       Cd556   2.002       .  S
Cd556       O558   2.070       .  S
O557        C564   1.277       .  A
C559        O563   1.277   1_556  A
C559       C2025   1.485       .  S
C560       C1401   1.486       .  S
C562       C3284   1.486   1_556  S
C564       C2684   1.485       .  S
C565        O566   1.277       .  A
C565       C3369   1.490       .  S
C567        C568   1.540       .  S
C567        C573   1.547       .  S
C567        C571   1.540       .  S
C567       C1388   1.535       .  S
C568        H575   1.086       .  S
C568        C569   1.369       .  D
C569        C570   1.539       .  S
C569       C1412   1.488       .  S
C570        C574   1.538       .  S
C570        C572   1.537       .  S
C570        H576   1.108       .  S
C571        H577   1.086       .  S
C571        C572   1.364       .  D
C572       C1868   1.481       .  S
C573        H578   1.079       .  S
C573        C574   1.369       .  D
C574       C2204   1.491       .  S
C579        C580   1.533       .  S
C579        C585   1.538       .  S
C579        C583   1.531       .  S
C579       C1353   1.531       .  S
C580        H587   1.086       .  S
C580        C581   1.370       .  D
C581        C582   1.548       .  S
C581       C1377   1.491       .  S
C582        C586   1.542       .  S
C582        C584   1.546       .  S
C582        H588   1.110       .  S
C583        H589   1.086       .  S
C583        C584   1.368       .  D
C584       C1329   1.489       .  S
C585        H590   1.081       .  S
C585        C586   1.364       .  D
C586       C1449   1.482       .  S
C591        C592   1.550       .  S
C591        C597   1.541       .  S
C591        C595   1.539       .  S
C591       C1340   1.533       .  S
C592        H599   1.081       .  S
C592        C593   1.364       .  D
C593        C594   1.533       .  S
C593       C1316   1.480       .  S
C594        C598   1.541       .  S
C594        C596   1.538       .  S
C594        H600   1.106       .  S
C595        H601   1.086       .  S
C595        C596   1.367       .  D
C596       C3428   1.487       .  S
C597        H602   1.085       .  S
C597        C598   1.371       .  D
C598       C1617   1.497       .  S
O603        C619   1.278       .  A
O603       Zn609   2.039       .  S
C604        O620   1.277       .  A
C604        O617   1.273       .  A
C604       C2468   1.484       .  S
O605        C618   1.275   1_545  A
O605       Cd612   2.066       .  S
O606        C624   1.274   1_565  A
O606       Cd615   2.060       .  S
O607        C621   1.275       .  A
O607       Cd611   2.075       .  S
O608        C619   1.274   1_545  A
O608       Cd611   2.058       .  S
Zn609       O620   2.040       .  S
Zn609       O622   2.041       .  S
Zn609       O614   1.957   1_565  S
O610        C621   1.273   1_565  A
O610       Cd615   2.057       .  S
Cd611       O613   2.074       .  S
Cd611       O614   2.000       .  S
Cd612       O616   2.076       .  S
Cd612       O625   2.076       .  S
Cd612       O614   2.000       .  S
O613        C623   1.276       .  A
O614       Cd615   1.993   1_545  S
Cd615       O617   2.055       .  S
O616        C623   1.276       .  A
C618        O622   1.278       .  A
C618       C2876   1.486       .  S
C619       C1281   1.484       .  S
C621       C1497   1.480       .  S
C623       C1305   1.485       .  S
C624        O625   1.276       .  A
C624       C2049   1.482       .  S
C626        C627   1.539   1_545  S
C626        C632   1.540       .  S
C626        C630   1.545       .  S
C626       C1233   1.534       .  S
C627        H634   1.086       .  S
C627        C628   1.366       .  D
C628        C629   1.538       .  S
C628       C2241   1.485       .  S
C629        C633   1.542       .  S
C629        C631   1.539       .  S
C629        H635   1.107       .  S
C630        H636   1.080       .  S
C630        C631   1.368   1_545  D
C631       C1257   1.489       .  S
C632        H637   1.085       .  S
C632        C633   1.369   1_545  D
C633       C1292   1.496   1_565  S
C638        C639   1.543       .  S
C638        C644   1.552   1_455  S
C638        C642   1.541       .  S
C638       C2564   1.536       .  S
C639        H646   1.086       .  S
C639        C640   1.367       .  D
C640        C641   1.533   1_455  S
C640       C1185   1.483       .  S
C641        C645   1.531       .  S
C641        C643   1.540   1_655  S
C641        H647   1.106       .  S
C642        H648   1.085       .  S
C642        C643   1.371       .  D
C643       C1209   1.497       .  S
C644        H649   1.082       .  S
C644        C645   1.366       .  D
C645       C1905   1.483       .  S
O650        C666   1.278       .  A
O650       Zn656   2.045       .  S
C651        O667   1.279       .  A
C651        O664   1.274   1_455  A
C651       C1473   1.490       .  S
O652        C665   1.275   1_655  A
O652       Cd659   2.065       .  S
O653        C671   1.275       .  A
O653       Cd662   2.065       .  S
O654        C668   1.276       .  A
O654       Cd658   2.076       .  S
O655        C666   1.274       .  A
O655       Cd658   2.059       .  S
Zn656       O667   2.061       .  S
Zn656       O669   2.040       .  S
Zn656       O661   1.966       .  S
O657        C668   1.275   1_655  A
O657       Cd662   2.068       .  S
Cd658       O660   2.077       .  S
Cd658       O661   2.001       .  S
Cd659       O663   2.083       .  S
Cd659       O672   2.086       .  S
Cd659       O661   2.006   1_655  S
O660        C670   1.276   1_455  A
O661       Cd662   1.994   1_455  S
Cd662       O664   2.060       .  S
O663        C670   1.277       .  A
C665        O669   1.278       .  A
C665       C3009   1.485       .  S
C666       C1436   1.486       .  S
C668       C1196   1.484       .  S
C670       C1161   1.488       .  S
C671        O672   1.277       .  A
C671       C1940   1.485       .  S
C673        C674   1.551       .  S
C673        C679   1.544       .  S
C673        C677   1.540   1_455  S
C673       C2852   1.533       .  S
C674        H681   1.081       .  S
C674        C675   1.367       .  D
C675        C676   1.532   1_455  S
C675       C1172   1.484       .  S
C676        C680   1.532   1_655  S
C676        C678   1.536       .  S
C676        H682   1.108       .  S
C677        H683   1.086       .  S
C677        C678   1.367       .  D
C678       C1665   1.485       .  S
C679        H684   1.086       .  S
C679        C680   1.366       .  D
C680       C1148   1.483       .  S
C685        C686   1.541       .  S
C685        C691   1.538   1_556  S
C685        C689   1.546   1_565  S
C685       C2108   1.528       .  S
C686        H693   1.085       .  S
C686        C687   1.369   1_556  D
C687        C688   1.537   1_565  S
C687       C1089   1.491       .  S
C688        C692   1.534   1_545  S
C688        C690   1.534       .  S
C688        H694   1.108       .  S
C689        H695   1.081       .  S
C689        C690   1.367   1_556  D
C690       C1065   1.483       .  S
C691        H696   1.086       .  S
C691        C692   1.363       .  D
C692       C1124   1.477       .  S
O697        C713   1.277   1_545  A
O697       Zn703   2.034       .  S
C698        O714   1.278       .  A
C698        O711   1.274   1_455  A
C698       C1028   1.482   1_455  S
O699        C712   1.273       .  A
O699       Cd706   2.058   1_554  S
O700        C718   1.274   1_545  A
O700       Cd709   2.066       .  S
O701        C715   1.274       .  A
O701       Cd705   2.072       .  S
O702        C713   1.273       .  A
O702       Cd705   2.049       .  S
Zn703       O714   2.038       .  S
Zn703       O716   2.048   1_556  S
Zn703       O708   1.958   1_545  S
O704        C715   1.275   1_645  A
O704       Cd709   2.072       .  S
Cd705       O707   2.064       .  S
Cd705       O708   1.995       .  S
Cd706       O710   2.060       .  S
Cd706       O719   2.060       .  S
Cd706       O708   1.991   1_655  S
O707        C717   1.275   1_455  A
O708       Cd709   1.994   1_465  S
Cd709       O711   2.051       .  S
O710        C717   1.274       .  A
C712        O716   1.278   1_665  A
C712       C1041   1.487       .  S
C713       C1100   1.480       .  S
C715       C3633   1.484       .  S
C717       C2780   1.478       .  S
C718        O719   1.274       .  A
C718       C3825   1.478       .  S
C720        C721   1.552   1_565  S
C720        C726   1.536   1_655  S
C720        C724   1.543       .  S
C720       C1532   1.536       .  S
C721        H728   1.079       .  S
C721        C722   1.370   1_655  D
C722        C723   1.536   1_545  S
C722        C980   1.494       .  S
C723        C727   1.540       .  S
C723        C725   1.539       .  S
C723        H729   1.106   1_565  S
C724        H730   1.086       .  S
C724        C725   1.371   1_655  D
C725       C1052   1.493       .  S
C726        H731   1.086       .  S
C726        C727   1.362       .  D
C727        C993   1.486       .  S
C732        C733   1.546   1_556  S
C732        C738   1.542       .  S
C732        C736   1.538   1_655  S
C732       C3092   1.530       .  S
C733        H740   1.081       .  S
C733        C734   1.367   1_655  D
C734        C735   1.536       .  S
C734        C921   1.484       .  S
C735        C739   1.539   1_554  S
C735        C737   1.539   1_554  S
C735        H741   1.108       .  S
C736        H742   1.086       .  S
C736        C737   1.364       .  D
C737        C945   1.487       .  S
C738        H743   1.086       .  S
C738        C739   1.369   1_655  D
C739       C1017   1.491       .  S
O744        C760   1.276   1_554  A
O744       Zn750   2.028       .  S
C745        O761   1.276       .  A
C745        O758   1.276       .  A
C745        C897   1.486       .  S
O746        C759   1.274       .  A
O746       Cd753   2.062       .  S
O747        C765   1.276       .  A
O747       Cd756   2.072       .  S
O748        C762   1.275       .  A
O748       Cd752   2.065       .  S
O749        C760   1.273       .  A
O749       Cd752   2.055       .  S
Zn750       O761   2.028       .  S
Zn750       O763   2.027       .  S
Zn750       O755   1.950   1_554  S
O751        C762   1.276   1_554  A
O751       Cd756   2.076       .  S
Cd752       O754   2.072       .  S
Cd752       O755   1.995       .  S
Cd753       O757   2.072       .  S
Cd753       O766   2.064       .  S
Cd753       O755   1.996       .  S
O754        C764   1.275       .  A
O755       Cd756   2.004   1_556  S
Cd756       O758   2.076       .  S
O757        C764   1.275       .  A
C759        O763   1.276   1_556  A
C759        C956   1.482       .  S
C760       C1076   1.481       .  S
C762       C3308   1.482       .  S
C764       C3548   1.484       .  S
C765        O766   1.276   1_554  A
C765       C2745   1.481       .  S
O767        C783   1.273       .  A
O767       Zn773   2.009       .  S
C768        O784   1.273   1_565  A
C768        O781   1.274       .  A
C768       C1113   1.477       .  S
O769        C782   1.274       .  A
O769       Cd776   2.067       .  S
O770        C788   1.277       .  A
O770       Cd779   2.080       .  S
O771        C785   1.275   1_545  A
O771       Cd775   2.064       .  S
O772        C783   1.275       .  A
O772       Cd775   2.072       .  S
Zn773       O784   2.006       .  S
Zn773       O786   2.015       .  S
Zn773       O778   1.942   1_545  S
O774        C785   1.277       .  A
O774       Cd779   2.081       .  S
Cd775       O777   2.064       .  S
Cd775       O778   1.992   1_545  S
Cd776       O780   2.075       .  S
Cd776       O789   2.070       .  S
Cd776       O778   1.999       .  S
O777        C787   1.276   1_545  A
O778       Cd779   2.003       .  S
Cd779       O781   2.062       .  S
O780        C787   1.276       .  A
C782        O786   1.275   1_565  A
C782       C1004   1.481       .  S
C783        C873   1.482       .  S
C785       C1268   1.484       .  S
C787       C2889   1.481       .  S
C788        O789   1.276       .  A
C788       C2636   1.484       .  S
O790        C806   1.276       .  A
O790       Zn796   2.031       .  S
C791        O807   1.277       .  A
C791        O804   1.275       .  A
C791        C849   1.487       .  S
O792        C805   1.274   1_655  A
O792       Cd799   2.050       .  S
O793        C811   1.277       .  A
O793       Cd802   2.083       .  S
O794        C808   1.275   1_655  A
O794       Cd798   2.061       .  S
O795        C806   1.274   1_655  A
O795       Cd798   2.058       .  S
Zn796       O807   2.038       .  S
Zn796       O809   2.035       .  S
Zn796       O801   1.958       .  S
O797        C808   1.276       .  A
O797       Cd802   2.075       .  S
Cd798       O800   2.077       .  S
Cd798       O801   1.998   1_655  S
Cd799       O803   2.068       .  S
Cd799       O812   2.069       .  S
Cd799       O801   1.992   1_655  S
O800        C810   1.275       .  A
O801       Cd802   2.002       .  S
Cd802       O804   2.070       .  S
O803        C810   1.274       .  A
C805        O809   1.277       .  A
C805        C969   1.481       .  S
C806        C932   1.482       .  S
C808       C1220   1.480       .  S
C810       C1772   1.484       .  S
C811        O812   1.275   1_455  A
C811       C1137   1.486       .  S
C813        C814   1.536       .  S
C813        C819   1.536       .  S
C813        C817   1.547       .  S
C813       C1364   1.531       .  S
C814        H821   1.086       .  S
C814        C815   1.366       .  D
C815        C816   1.543       .  S
C815        C908   1.491       .  S
C816        C820   1.541       .  S
C816        C818   1.538       .  S
C816        H822   1.108       .  S
C817        H823   1.081       .  S
C817        C818   1.369       .  D
C818        C860   1.488       .  S
C819        H824   1.086       .  S
C819        C820   1.367       .  D
C820        C884   1.490       .  S
C825        C826   1.530       .  S
C825        C831   1.538       .  S
C825        C829   1.531       .  S
C825       C3908   1.530       .  S
C826        H833   1.086       .  S
C826        C827   1.368       .  D
C827        C828   1.549       .  S
C827       C1244   1.492       .  S
C828        C832   1.549       .  S
C828        C830   1.548       .  S
C828        H834   1.109       .  S
C829        H835   1.086       .  S
C829        C830   1.367       .  D
C830       C3332   1.492       .  S
C831        H836   1.080       .  S
C831        C832   1.368       .  D
C832       C1796   1.495       .  S
C837        C838   1.537       .  S
C837        C843   1.540       .  S
C837        C841   1.530       .  S
C837       C3812   1.535       .  S
C838        H845   1.086       .  S
C838        C839   1.370       .  D
C839        C840   1.549       .  S
C839       C2492   1.490       .  S
C840        C844   1.547       .  S
C840        C842   1.545       .  S
C840        H846   1.110       .  S
C841        H847   1.087       .  S
C841        C842   1.364       .  D
C842       C3404   1.484       .  S
C843        H848   1.081       .  S
C843        C844   1.368       .  D
C844       C1988   1.492       .  S
C849        C850   1.406       .  A
C849        C854   1.406       .  A
C850        C851   1.401       .  A
C850        H863   1.083       .  S
C851        C852   1.406       .  A
C851        H864   1.083       .  S
C852        C855   1.493       .  S
C852        C853   1.409       .  A
C853        C854   1.398       .  A
C853        H865   1.080       .  S
C854        H866   1.083       .  S
C855        H867   1.085       .  S
C855        C856   1.350       .  D
C856        H868   1.084       .  S
C856        C857   1.491       .  S
C857        C858   1.404       .  A
C857        C862   1.409       .  A
C858        C859   1.398       .  A
C858        H869   1.083       .  S
C859        C860   1.404       .  A
C859        H870   1.083       .  S
C860        C861   1.405       .  A
C861        C862   1.401       .  A
C861        H871   1.083       .  S
C862        H872   1.081       .  S
C873        C874   1.406       .  A
C873        C878   1.405       .  A
C874        C875   1.397       .  A
C874        H887   1.083       .  S
C875        C876   1.403       .  A
C875        H888   1.083       .  S
C876        C879   1.486       .  S
C876        C877   1.408       .  A
C877        C878   1.398       .  A
C877        H889   1.081       .  S
C878        H890   1.083       .  S
C879        H891   1.083       .  S
C879        C880   1.348       .  D
C880        H892   1.085       .  S
C880        C881   1.489       .  S
C881        C882   1.404       .  A
C881        C886   1.408       .  A
C882        C883   1.397       .  A
C882        H893   1.083       .  S
C883        C884   1.406       .  A
C883        H894   1.082       .  S
C884        C885   1.403       .  A
C885        C886   1.396       .  A
C885        H895   1.076       .  S
C886        H896   1.079       .  S
C897        C898   1.406       .  A
C897        C902   1.407       .  A
C898        C899   1.399       .  A
C898        H911   1.083       .  S
C899        C900   1.405       .  A
C899        H912   1.083       .  S
C900        C903   1.492       .  S
C900        C901   1.409       .  A
C901        C902   1.400       .  A
C901        H913   1.080       .  S
C902        H914   1.083       .  S
C903        H915   1.084       .  S
C903        C904   1.350       .  D
C904        H916   1.084       .  S
C904        C905   1.491       .  S
C905        C906   1.405       .  A
C905        C910   1.407       .  A
C906        C907   1.400       .  A
C906        H917   1.083       .  S
C907        C908   1.407       .  A
C907        H918   1.082       .  S
C908        C909   1.403       .  A
C909        C910   1.397       .  A
C909        H919   1.076       .  S
C910        H920   1.081       .  S
C921        C922   1.405       .  A
C921        C926   1.404       .  A
C922        C923   1.397       .  A
C922        H935   1.083       .  S
C923        C924   1.403       .  A
C923        H936   1.083       .  S
C924        C927   1.487       .  S
C924        C925   1.409       .  A
C925        C926   1.398       .  A
C925        H937   1.081       .  S
C926        H938   1.083       .  S
C927        H939   1.085       .  S
C927        C928   1.347   1_455  D
C928        H940   1.085       .  S
C928        C929   1.486   1_655  S
C929        C930   1.402   1_455  A
C929        C934   1.409       .  A
C930        C931   1.395       .  A
C930        H941   1.084       .  S
C931        C932   1.406   1_655  A
C931        H942   1.083       .  S
C932        C933   1.406       .  A
C933        C934   1.400       .  A
C933        H943   1.083       .  S
C934        H944   1.081       .  S
C945        C946   1.406       .  A
C945        C950   1.402       .  A
C946        C947   1.401       .  A
C946        H959   1.083       .  S
C947        C948   1.405       .  A
C947        H960   1.083       .  S
C948        C951   1.488       .  S
C948        C949   1.406       .  A
C949        C950   1.395       .  A
C949        H961   1.081       .  S
C950        H962   1.075       .  S
C951        H963   1.084       .  S
C951        C952   1.349       .  D
C952        H964   1.085   1_556  S
C952        C953   1.488       .  S
C953        C954   1.404   1_556  A
C953        C958   1.408       .  A
C954        C955   1.397       .  A
C954        H965   1.083       .  S
C955        C956   1.404   1_554  A
C955        H966   1.083       .  S
C956        C957   1.407       .  A
C957        C958   1.399       .  A
C957        H967   1.083       .  S
C958        H968   1.080       .  S
C969        C970   1.406   1_455  A
C969        C974   1.406       .  A
C970        C971   1.393       .  A
C970        H983   1.083       .  S
C971        C972   1.401       .  A
C971        H984   1.084       .  S
C972        C975   1.486       .  S
C972        C973   1.410   1_655  A
C973        C974   1.401       .  A
C973        H985   1.081       .  S
C974        H986   1.083       .  S
C975        H987   1.084       .  S
C975        C976   1.345   1_655  D
C976        H988   1.085       .  S
C976        C977   1.487       .  S
C977        C978   1.400       .  A
C977        C982   1.409   1_455  A
C978        C979   1.394       .  A
C978        H989   1.084       .  S
C979        C980   1.405       .  A
C979        H990   1.074       .  S
C980        C981   1.408   1_455  A
C981        C982   1.400       .  A
C981        H991   1.082       .  S
C982        H992   1.081       .  S
C993        C994   1.406       .  A
C993        C998   1.401   1_565  A
C994        C995   1.401       .  A
C994       H1007   1.083       .  S
C995        C996   1.405       .  A
C995       H1008   1.083       .  S
C996        C999   1.486       .  S
C996        C997   1.406       .  A
C997        C998   1.393   1_565  A
C997       H1009   1.082   1_565  S
C998       H1010   1.075       .  S
C999       H1011   1.084       .  S
C999       C1000   1.348       .  D
C1000      H1012   1.085   1_565  S
C1000      C1001   1.485       .  S
C1001      C1002   1.403   1_565  A
C1001      C1006   1.408       .  A
C1002      C1003   1.396       .  A
C1002      H1013   1.083       .  S
C1003      C1004   1.405   1_545  A
C1003      H1014   1.083       .  S
C1004      C1005   1.406       .  A
C1005      C1006   1.399       .  A
C1005      H1015   1.083       .  S
C1006      H1016   1.081       .  S
C1017      C1018   1.404       .  A
C1017      C1022   1.407   1_455  A
C1018      C1019   1.392       .  A
C1018      H1031   1.075       .  S
C1019      C1020   1.400       .  A
C1019      H1032   1.084       .  S
C1020      C1023   1.486       .  S
C1020      C1021   1.409   1_455  A
C1021      C1022   1.402       .  A
C1021      H1033   1.081       .  S
C1022      H1034   1.082       .  S
C1023      H1035   1.085       .  S
C1023      C1024   1.345   1_455  D
C1024      H1036   1.084       .  S
C1024      C1025   1.486       .  S
C1025      C1026   1.401       .  A
C1025      C1030   1.410   1_655  A
C1026      C1027   1.395       .  A
C1026      H1037   1.083       .  S
C1027      C1028   1.407       .  A
C1027      H1038   1.083       .  S
C1028      C1029   1.405   1_655  A
C1029      C1030   1.399       .  A
C1029      H1039   1.083   1_556  S
C1030      H1040   1.081   1_556  S
C1041      C1042   1.407       .  A
C1041      C1046   1.406   1_665  A
C1042      C1043   1.397       .  A
C1042      H1055   1.083       .  S
C1043      C1044   1.403       .  A
C1043      H1056   1.083       .  S
C1044      C1047   1.493   1_655  S
C1044      C1045   1.411   1_665  A
C1045      C1046   1.403       .  A
C1045      H1057   1.080       .  S
C1046      H1058   1.083       .  S
C1047      H1059   1.085   1_455  S
C1047      C1048   1.348       .  D
C1048      H1060   1.084   1_565  S
C1048      C1049   1.492       .  S
C1049      C1050   1.402   1_565  A
C1049      C1054   1.411       .  A
C1050      C1051   1.396       .  A
C1050      H1061   1.084       .  S
C1051      C1052   1.407   1_545  A
C1051      H1062   1.082       .  S
C1052      C1053   1.406       .  A
C1053      C1054   1.404       .  A
C1053      H1063   1.083       .  S
C1054      H1064   1.081       .  S
C1065      C1066   1.404       .  A
C1065      C1070   1.404   1_554  A
C1066      C1067   1.396       .  A
C1066      H1079   1.083       .  S
C1067      C1068   1.403       .  A
C1067      H1080   1.083       .  S
C1068      C1071   1.486       .  S
C1068      C1069   1.409   1_554  A
C1069      C1070   1.398       .  A
C1069      H1081   1.081       .  S
C1070      H1082   1.083       .  S
C1071      H1083   1.085       .  S
C1071      C1072   1.346   1_554  D
C1072      H1084   1.085       .  S
C1072      C1073   1.485       .  S
C1073      C1074   1.402       .  A
C1073      C1078   1.409   1_556  A
C1074      C1075   1.395       .  A
C1074      H1085   1.083       .  S
C1075      C1076   1.406       .  A
C1075      H1086   1.083       .  S
C1076      C1077   1.405   1_556  A
C1077      C1078   1.399       .  A
C1077      H1087   1.083       .  S
C1078      H1088   1.081       .  S
C1089      C1090   1.405       .  A
C1089      C1094   1.406   1_554  A
C1090      C1091   1.393       .  A
C1090      H1103   1.076   1_565  S
C1091      C1092   1.400   1_554  A
C1091      H1104   1.084   1_565  S
C1092      C1095   1.486       .  S
C1092      C1093   1.409       .  A
C1093      C1094   1.399       .  A
C1093      H1105   1.080       .  S
C1094      H1106   1.082       .  S
C1095      H1107   1.085   1_566  S
C1095      C1096   1.345       .  D
C1096      H1108   1.084       .  S
C1096      C1097   1.484       .  S
C1097      C1098   1.401       .  A
C1097      C1102   1.409   1_565  A
C1098      C1099   1.394       .  A
C1098      H1109   1.084       .  S
C1099      C1100   1.407       .  A
C1099      H1110   1.083       .  S
C1100      C1101   1.404   1_565  A
C1101      C1102   1.399       .  A
C1101      H1111   1.083   1_556  S
C1102      H1112   1.081   1_556  S
C1113      C1114   1.405       .  A
C1113      C1118   1.406   1_565  A
C1114      C1115   1.395       .  A
C1114      H1127   1.083       .  S
C1115      C1116   1.401       .  A
C1115      H1128   1.083       .  S
C1116      C1119   1.479       .  S
C1116      C1117   1.407   1_565  A
C1117      C1118   1.396       .  A
C1117      H1129   1.082       .  S
C1118      H1130   1.083       .  S
C1119      H1131   1.085       .  S
C1119      C1120   1.343       .  D
C1120      H1132   1.086   1_565  S
C1120      C1121   1.480       .  S
C1121      C1122   1.401       .  A
C1121      C1126   1.409       .  A
C1122      C1123   1.393       .  A
C1122      H1133   1.084       .  S
C1123      C1124   1.401       .  A
C1123      H1134   1.077       .  S
C1124      C1125   1.402       .  A
C1125      C1126   1.398       .  A
C1125      H1135   1.083       .  S
C1126      H1136   1.081       .  S
C1137      C1138   1.406       .  A
C1137      C1142   1.407   1_455  A
C1138      C1139   1.400       .  A
C1138      H1151   1.083       .  S
C1139      C1140   1.404       .  A
C1139      H1152   1.083       .  S
C1140      C1143   1.489       .  S
C1140      C1141   1.408   1_455  A
C1141      C1142   1.399       .  A
C1141      H1153   1.081       .  S
C1142      H1154   1.083       .  S
C1143      H1155   1.085       .  S
C1143      C1144   1.348   1_455  D
C1144      H1156   1.085       .  S
C1144      C1145   1.487   1_655  S
C1145      C1146   1.403   1_455  A
C1145      C1150   1.409       .  A
C1146      C1147   1.396       .  A
C1146      H1157   1.083       .  S
C1147      C1148   1.404   1_655  A
C1147      H1158   1.083       .  S
C1148      C1149   1.404       .  A
C1149      C1150   1.401       .  A
C1149      H1159   1.083       .  S
C1150      H1160   1.082       .  S
C1161      C1162   1.406       .  A
C1161      C1166   1.408   1_655  A
C1162      C1163   1.399       .  A
C1162      H1175   1.083       .  S
C1163      C1164   1.404   1_655  A
C1163      H1176   1.083       .  S
C1164      C1167   1.490       .  S
C1164      C1165   1.408       .  A
C1165      C1166   1.401       .  A
C1165      H1177   1.082       .  S
C1166      H1178   1.083       .  S
C1167      H1179   1.086   1_455  S
C1167      C1168   1.348       .  D
C1168      H1180   1.085       .  S
C1168      C1169   1.489       .  S
C1169      C1170   1.404       .  A
C1169      C1174   1.409       .  A
C1170      C1171   1.398       .  A
C1170      H1181   1.083       .  S
C1171      C1172   1.404       .  A
C1171      H1182   1.083       .  S
C1172      C1173   1.404       .  A
C1173      C1174   1.401       .  A
C1173      H1183   1.083       .  S
C1174      H1184   1.082       .  S
C1185      C1186   1.405   1_455  A
C1185      C1190   1.403       .  A
C1186      C1187   1.396       .  A
C1186      H1199   1.083       .  S
C1187      C1188   1.402       .  A
C1187      H1200   1.083       .  S
C1188      C1191   1.485       .  S
C1188      C1189   1.409   1_655  A
C1189      C1190   1.400       .  A
C1189      H1201   1.082       .  S
C1190      H1202   1.083       .  S
C1191      H1203   1.085       .  S
C1191      C1192   1.346   1_655  D
C1192      H1204   1.086       .  S
C1192      C1193   1.486       .  S
C1193      C1194   1.403       .  A
C1193      C1198   1.407   1_455  A
C1194      C1195   1.398       .  A
C1194      H1205   1.083       .  S
C1195      C1196   1.406       .  A
C1195      H1206   1.083       .  S
C1196      C1197   1.407   1_455  A
C1197      C1198   1.399       .  A
C1197      H1207   1.083       .  S
C1198      H1208   1.082       .  S
C1209      C1210   1.409       .  A
C1209      C1214   1.407   1_455  A
C1210      C1211   1.402       .  A
C1210      H1223   1.081       .  S
C1211      C1212   1.403       .  A
C1211      H1224   1.083       .  S
C1212      C1215   1.487       .  S
C1212      C1213   1.404   1_455  A
C1213      C1214   1.393       .  A
C1213      H1225   1.082       .  S
C1214      H1226   1.076       .  S
C1215      H1227   1.085       .  S
C1215      C1216   1.348       .  D
C1216      H1228   1.085   1_455  S
C1216      C1217   1.485       .  S
C1217      C1218   1.403   1_455  A
C1217      C1222   1.408       .  A
C1218      C1219   1.395       .  A
C1218      H1229   1.084       .  S
C1219      C1220   1.405   1_655  A
C1219      H1230   1.083       .  S
C1220      C1221   1.406       .  A
C1221      C1222   1.400       .  A
C1221      H1231   1.083       .  S
C1222      H1232   1.081       .  S
C1233      C1234   1.408       .  A
C1233      C1238   1.412       .  A
C1234      C1235   1.398       .  A
C1234      H1247   1.083       .  S
C1235      C1236   1.404       .  A
C1235      H1248   1.083       .  S
C1236      C1239   1.493       .  S
C1236      C1237   1.407       .  A
C1237      C1238   1.401       .  A
C1237      H1249   1.081       .  S
C1238      H1250   1.076       .  S
C1239      H1251   1.084       .  S
C1239      C1240   1.352       .  D
C1240      H1252   1.084       .  S
C1240      C1241   1.494       .  S
C1241      C1242   1.407       .  A
C1241      C1246   1.407       .  A
C1242      C1243   1.403       .  A
C1242      H1253   1.083       .  S
C1243      C1244   1.404       .  A
C1243      H1254   1.082       .  S
C1244      C1245   1.407       .  A
C1245      C1246   1.397       .  A
C1245      H1255   1.082       .  S
C1246      H1256   1.081       .  S
C1257      C1258   1.405       .  A
C1257      C1262   1.406   1_565  A
C1258      C1259   1.399       .  A
C1258      H1271   1.082       .  S
C1259      C1260   1.404       .  A
C1259      H1272   1.083       .  S
C1260      C1263   1.488       .  S
C1260      C1261   1.408   1_565  A
C1261      C1262   1.398       .  A
C1261      H1273   1.081       .  S
C1262      H1274   1.082       .  S
C1263      H1275   1.085       .  S
C1263      C1264   1.347       .  D
C1264      H1276   1.085   1_565  S
C1264      C1265   1.487       .  S
C1265      C1266   1.402   1_565  A
C1265      C1270   1.409       .  A
C1266      C1267   1.396       .  A
C1266      H1277   1.083       .  S
C1267      C1268   1.406   1_545  A
C1267      H1278   1.083       .  S
C1268      C1269   1.406       .  A
C1269      C1270   1.401       .  A
C1269      H1279   1.083       .  S
C1270      H1280   1.081       .  S
C1281      C1282   1.405       .  A
C1281      C1286   1.407   1_565  A
C1282      C1283   1.400       .  A
C1282      H1295   1.083       .  S
C1283      C1284   1.405       .  A
C1283      H1296   1.083       .  S
C1284      C1287   1.489       .  S
C1284      C1285   1.407   1_565  A
C1285      C1286   1.397       .  A
C1285      H1297   1.081       .  S
C1286      H1298   1.083       .  S
C1287      H1299   1.085       .  S
C1287      C1288   1.350   1_565  D
C1288      H1300   1.084       .  S
C1288      C1289   1.489       .  S
C1289      C1290   1.404       .  A
C1289      C1294   1.406   1_545  A
C1290      C1291   1.400       .  A
C1290      H1301   1.083       .  S
C1291      C1292   1.408       .  A
C1291      H1302   1.082       .  S
C1292      C1293   1.406   1_545  A
C1293      C1294   1.397       .  A
C1293      H1303   1.077       .  S
C1294      H1304   1.081       .  S
C1305      C1306   1.406       .  A
C1305      C1310   1.407       .  A
C1306      C1307   1.399       .  A
C1306      H1319   1.083       .  S
C1307      C1308   1.404       .  A
C1307      H1320   1.083       .  S
C1308      C1311   1.490       .  S
C1308      C1309   1.408       .  A
C1309      C1310   1.400       .  A
C1309      H1321   1.081       .  S
C1310      H1322   1.083       .  S
C1311      H1323   1.086       .  S
C1311      C1312   1.348       .  D
C1312      H1324   1.085       .  S
C1312      C1313   1.487       .  S
C1313      C1314   1.403       .  A
C1313      C1318   1.410       .  A
C1314      C1315   1.396       .  A
C1314      H1325   1.083       .  S
C1315      C1316   1.401       .  A
C1315      H1326   1.080       .  S
C1316      C1317   1.403       .  A
C1317      C1318   1.402       .  A
C1317      H1327   1.083       .  S
C1318      H1328   1.082       .  S
C1329      C1330   1.405       .  A
C1329      C1334   1.405       .  A
C1330      C1331   1.392       .  A
C1330      H1343   1.083       .  S
C1331      C1332   1.402       .  A
C1331      H1344   1.084       .  S
C1332      C1335   1.492       .  S
C1332      C1333   1.412       .  A
C1333      C1334   1.407       .  A
C1333      H1345   1.080       .  S
C1334      H1346   1.082       .  S
C1335      H1347   1.086       .  S
C1335      C1336   1.348       .  D
C1336      H1348   1.083       .  S
C1336      C1337   1.491       .  S
C1337      C1338   1.401       .  A
C1337      C1342   1.406       .  A
C1338      C1339   1.401       .  A
C1338      H1349   1.083       .  S
C1339      C1340   1.411       .  A
C1339      H1350   1.083       .  S
C1340      C1341   1.410       .  A
C1341      C1342   1.398       .  A
C1341      H1351   1.076       .  S
C1342      H1352   1.082       .  S
C1353      C1354   1.410       .  A
C1353      C1358   1.410       .  A
C1354      C1355   1.395       .  A
C1354      H1367   1.076       .  S
C1355      C1356   1.401       .  A
C1355      H1368   1.084       .  S
C1356      C1359   1.488       .  S
C1356      C1357   1.407       .  A
C1357      C1358   1.401       .  A
C1357      H1369   1.081       .  S
C1358      H1370   1.083       .  S
C1359      H1371   1.085       .  S
C1359      C1360   1.348       .  D
C1360      H1372   1.084       .  S
C1360      C1361   1.490       .  S
C1361      C1362   1.401       .  A
C1361      C1366   1.407       .  A
C1362      C1363   1.399       .  A
C1362      H1373   1.083       .  S
C1363      C1364   1.410       .  A
C1363      H1374   1.083       .  S
C1364      C1365   1.410       .  A
C1365      C1366   1.398       .  A
C1365      H1375   1.076       .  S
C1366      H1376   1.081       .  S
C1377      C1378   1.404       .  A
C1377      C1382   1.406       .  A
C1378      C1379   1.403       .  A
C1378      H1391   1.083       .  S
C1379      C1380   1.408       .  A
C1379      H1392   1.083       .  S
C1380      C1383   1.496       .  S
C1380      C1381   1.408       .  A
C1381      C1382   1.398       .  A
C1381      H1393   1.080       .  S
C1382      H1394   1.083       .  S
C1383      H1395   1.084       .  S
C1383      C1384   1.353       .  D
C1384      H1396   1.083       .  S
C1384      C1385   1.494       .  S
C1385      C1386   1.404       .  A
C1385      C1390   1.406       .  A
C1386      C1387   1.400       .  A
C1386      H1397   1.083       .  S
C1387      C1388   1.409       .  A
C1387      H1398   1.083       .  S
C1388      C1389   1.413       .  A
C1389      C1390   1.401       .  A
C1389      H1399   1.076       .  S
C1390      H1400   1.081       .  S
C1401      C1402   1.406       .  A
C1401      C1406   1.406       .  A
C1402      C1403   1.401       .  A
C1402      H1415   1.083       .  S
C1403      C1404   1.406       .  A
C1403      H1416   1.083       .  S
C1404      C1407   1.493       .  S
C1404      C1405   1.409       .  A
C1405      C1406   1.398       .  A
C1405      H1417   1.080       .  S
C1406      H1418   1.083       .  S
C1407      H1419   1.084       .  S
C1407      C1408   1.351       .  D
C1408      H1420   1.083       .  S
C1408      C1409   1.492       .  S
C1409      C1410   1.405       .  A
C1409      C1414   1.409       .  A
C1410      C1411   1.398       .  A
C1410      H1421   1.083       .  S
C1411      C1412   1.404       .  A
C1411      H1422   1.083       .  S
C1412      C1413   1.405       .  A
C1413      C1414   1.401       .  A
C1413      H1423   1.083       .  S
C1414      H1424   1.080       .  S
C1425      C1426   1.405       .  A
C1425      C1430   1.406       .  A
C1426      C1427   1.398       .  A
C1426      H1439   1.082       .  S
C1427      C1428   1.403       .  A
C1427      H1440   1.083       .  S
C1428      C1431   1.490       .  S
C1428      C1429   1.409       .  A
C1429      C1430   1.401       .  A
C1429      H1441   1.081       .  S
C1430      H1442   1.083       .  S
C1431      H1443   1.085       .  S
C1431      C1432   1.347       .  D
C1432      H1444   1.085       .  S
C1432      C1433   1.489       .  S
C1433      C1434   1.402       .  A
C1433      C1438   1.410       .  A
C1434      C1435   1.396       .  A
C1434      H1445   1.083       .  S
C1435      C1436   1.407       .  A
C1435      H1446   1.083       .  S
C1436      C1437   1.406       .  A
C1437      C1438   1.402       .  A
C1437      H1447   1.083       .  S
C1438      H1448   1.081       .  S
C1449      C1450   1.403       .  A
C1449      C1454   1.403       .  A
C1450      C1451   1.405       .  A
C1450      H1463   1.082       .  S
C1451      C1452   1.407       .  A
C1451      H1464   1.083       .  S
C1452      C1455   1.490       .  S
C1452      C1453   1.406       .  A
C1453      C1454   1.394       .  A
C1453      H1465   1.082       .  S
C1454      H1466   1.084       .  S
C1455      H1467   1.084       .  S
C1455      C1456   1.351       .  D
C1456      H1468   1.086       .  S
C1456      C1457   1.490       .  S
C1457      C1458   1.404       .  A
C1457      C1462   1.406       .  A
C1458      C1459   1.398       .  A
C1458      H1469   1.084       .  S
C1459      C1460   1.409       .  A
C1459      H1470   1.077       .  S
C1460      C1461   1.411       .  A
C1461      C1462   1.400       .  A
C1461      H1471   1.083       .  S
C1462      H1472   1.081       .  S
C1473      C1474   1.408   1_455  A
C1473      C1478   1.406       .  A
C1474      C1475   1.398       .  A
C1474      H1487   1.083       .  S
C1475      C1476   1.403       .  A
C1475      H1488   1.083       .  S
C1476      C1479   1.495       .  S
C1476      C1477   1.411   1_655  A
C1477      C1478   1.404       .  A
C1477      H1489   1.081       .  S
C1478      H1490   1.083       .  S
C1479      H1491   1.083       .  S
C1479      C1480   1.350   1_655  D
C1480      H1492   1.084       .  S
C1480      C1481   1.497       .  S
C1481      C1482   1.404       .  A
C1481      C1486   1.412   1_455  A
C1482      C1483   1.397       .  A
C1482      H1493   1.083       .  S
C1483      C1484   1.404   1_455  A
C1483      H1494   1.082       .  S
C1484      C1485   1.405       .  A
C1485      C1486   1.404       .  A
C1485      H1495   1.083       .  S
C1486      H1496   1.080       .  S
C1497      C1498   1.406   1_545  A
C1497      C1502   1.406       .  A
C1498      C1499   1.395       .  A
C1498      H1511   1.083       .  S
C1499      C1500   1.401       .  A
C1499      H1512   1.084       .  S
C1500      C1503   1.480       .  S
C1500      C1501   1.406   1_565  A
C1501      C1502   1.399       .  A
C1501      H1513   1.082       .  S
C1502      H1514   1.083       .  S
C1503      H1515   1.086       .  S
C1503      C1504   1.347       .  D
C1504      H1516   1.086       .  S
C1504      C1505   1.483       .  S
C1505      C1506   1.402       .  A
C1505      C1510   1.402   1_565  A
C1506      C1507   1.401       .  A
C1506      H1517   1.083       .  S
C1507      C1508   1.410       .  A
C1507      H1518   1.081       .  S
C1508      C1509   1.409   1_565  A
C1509      C1510   1.391       .  A
C1509      H1519   1.075       .  S
C1510      H1520   1.082       .  S
C1521      C1522   1.410       .  A
C1521      C1526   1.411       .  A
C1522      C1523   1.397       .  A
C1522      H1535   1.076       .  S
C1523      C1524   1.403       .  A
C1523      H1536   1.084       .  S
C1524      C1527   1.494       .  S
C1524      C1525   1.407       .  A
C1525      C1526   1.402       .  A
C1525      H1537   1.080       .  S
C1526      H1538   1.083       .  S
C1527      H1539   1.084       .  S
C1527      C1528   1.351       .  D
C1528      H1540   1.084       .  S
C1528      C1529   1.496       .  S
C1529      C1530   1.404       .  A
C1529      C1534   1.407       .  A
C1530      C1531   1.402       .  A
C1530      H1541   1.083       .  S
C1531      C1532   1.410       .  A
C1531      H1542   1.083       .  S
C1532      C1533   1.411       .  A
C1533      C1534   1.399       .  A
C1533      H1543   1.076       .  S
C1534      H1544   1.081       .  S
C1545      C1546   1.408       .  A
C1545      C1550   1.412       .  A
C1546      C1547   1.402       .  A
C1546      H1559   1.083       .  S
C1547      C1548   1.406       .  A
C1547      H1560   1.083       .  S
C1548      C1551   1.499       .  S
C1548      C1549   1.408       .  A
C1549      C1550   1.400       .  A
C1549      H1561   1.079       .  S
C1550      H1562   1.076       .  S
C1551      H1563   1.084       .  S
C1551      C1552   1.354       .  D
C1552      H1564   1.082       .  S
C1552      C1553   1.496       .  S
C1553      C1554   1.407       .  A
C1553      C1558   1.408       .  A
C1554      C1555   1.402       .  A
C1554      H1565   1.083       .  S
C1555      C1556   1.403       .  A
C1555      H1566   1.082       .  S
C1556      C1557   1.408       .  A
C1557      C1558   1.400       .  A
C1557      H1567   1.082       .  S
C1558      H1568   1.080       .  S
C1569      C1570   1.404       .  A
C1569      C1574   1.406       .  A
C1570      C1571   1.406       .  A
C1570      H1583   1.082       .  S
C1571      C1572   1.410       .  A
C1571      H1584   1.083       .  S
C1572      C1575   1.501       .  S
C1572      C1573   1.409       .  A
C1573      C1574   1.397       .  A
C1573      H1585   1.079       .  S
C1574      H1586   1.083       .  S
C1575      H1587   1.083       .  S
C1575      C1576   1.354       .  D
C1576      H1588   1.083       .  S
C1576      C1577   1.499       .  S
C1577      C1578   1.404       .  A
C1577      C1582   1.409       .  A
C1578      C1579   1.398       .  A
C1578      H1589   1.083       .  S
C1579      C1580   1.408       .  A
C1579      H1590   1.083       .  S
C1580      C1581   1.413       .  A
C1581      C1582   1.406       .  A
C1581      H1591   1.077       .  S
C1582      H1592   1.080       .  S
C1593      C1594   1.404       .  A
C1593      C1598   1.405       .  A
C1594      C1595   1.393       .  A
C1594      H1607   1.083       .  S
C1595      C1596   1.403       .  A
C1595      H1608   1.084       .  S
C1596      C1599   1.492       .  S
C1596      C1597   1.412       .  A
C1597      C1598   1.407       .  A
C1597      H1609   1.080       .  S
C1598      H1610   1.082       .  S
C1599      H1611   1.086       .  S
C1599      C1600   1.348       .  D
C1600      H1612   1.084       .  S
C1600      C1601   1.491       .  S
C1601      C1602   1.402       .  A
C1601      C1606   1.406       .  A
C1602      C1603   1.402       .  A
C1602      H1613   1.083       .  S
C1603      C1604   1.412       .  A
C1603      H1614   1.083       .  S
C1604      C1605   1.409       .  A
C1605      C1606   1.397       .  A
C1605      H1615   1.076       .  S
C1606      H1616   1.082       .  S
C1617      C1618   1.409       .  A
C1617      C1622   1.407       .  A
C1618      C1619   1.401       .  A
C1618      H1631   1.081       .  S
C1619      C1620   1.404       .  A
C1619      H1632   1.083       .  S
C1620      C1623   1.489       .  S
C1620      C1621   1.405       .  A
C1621      C1622   1.395       .  A
C1621      H1633   1.081       .  S
C1622      H1634   1.077       .  S
C1623      H1635   1.084       .  S
C1623      C1624   1.350       .  D
C1624      H1636   1.084       .  S
C1624      C1625   1.489       .  S
C1625      C1626   1.406       .  A
C1625      C1630   1.407       .  A
C1626      C1627   1.399       .  A
C1626      H1637   1.083       .  S
C1627      C1628   1.404       .  A
C1627      H1638   1.083       .  S
C1628      C1629   1.407       .  A
C1629      C1630   1.397       .  A
C1629      H1639   1.083       .  S
C1630      H1640   1.080       .  S
C1641      C1642   1.405       .  A
C1641      C1646   1.406       .  A
C1642      C1643   1.402       .  A
C1642      H1655   1.083       .  S
C1643      C1644   1.406       .  A
C1643      H1656   1.083       .  S
C1644      C1647   1.492       .  S
C1644      C1645   1.407       .  A
C1645      C1646   1.399       .  A
C1645      H1657   1.081       .  S
C1646      H1658   1.083       .  S
C1647      H1659   1.085       .  S
C1647      C1648   1.352       .  D
C1648      H1660   1.085       .  S
C1648      C1649   1.493       .  S
C1649      C1650   1.407       .  A
C1649      C1654   1.406       .  A
C1650      C1651   1.403       .  A
C1650      H1661   1.083       .  S
C1651      C1652   1.406       .  A
C1651      H1662   1.083       .  S
C1652      C1653   1.408       .  A
C1653      C1654   1.399       .  A
C1653      H1663   1.083       .  S
C1654      H1664   1.081       .  S
C1665      C1666   1.406       .  A
C1665      C1670   1.404       .  A
C1666      C1667   1.399       .  A
C1666      H1679   1.082       .  S
C1667      C1668   1.404       .  A
C1667      H1680   1.083       .  S
C1668      C1671   1.485       .  S
C1668      C1669   1.407       .  A
C1669      C1670   1.393       .  A
C1669      H1681   1.081       .  S
C1670      H1682   1.082       .  S
C1671      H1683   1.085       .  S
C1671      C1672   1.347       .  D
C1672      H1684   1.084       .  S
C1672      C1673   1.482       .  S
C1673      C1674   1.402       .  A
C1673      C1678   1.407       .  A
C1674      C1675   1.395       .  A
C1674      H1685   1.083       .  S
C1675      C1676   1.405       .  A
C1675      H1686   1.083       .  S
C1676      C1677   1.405       .  A
C1677      C1678   1.397       .  A
C1677      H1687   1.083       .  S
C1678      H1688   1.081       .  S
C1689      C1690   1.408       .  A
C1689      C1694   1.405       .  A
C1690      C1691   1.398       .  A
C1690      H1703   1.083       .  S
C1691      C1692   1.403       .  A
C1691      H1704   1.084       .  S
C1692      C1695   1.490       .  S
C1692      C1693   1.410       .  A
C1693      C1694   1.400       .  A
C1693      H1705   1.081       .  S
C1694      H1706   1.083       .  S
C1695      H1707   1.084       .  S
C1695      C1696   1.348       .  D
C1696      H1708   1.085       .  S
C1696      C1697   1.491       .  S
C1697      C1698   1.403       .  A
C1697      C1702   1.410       .  A
C1698      C1699   1.396       .  A
C1698      H1709   1.083       .  S
C1699      C1700   1.404       .  A
C1699      H1710   1.083       .  S
C1700      C1701   1.405       .  A
C1701      C1702   1.401       .  A
C1701      H1711   1.083       .  S
C1702      H1712   1.080       .  S
C1713      C1714   1.402       .  A
C1713      C1718   1.402       .  A
C1714      C1715   1.396       .  A
C1714      H1727   1.079       .  S
C1715      C1716   1.402       .  A
C1715      H1728   1.084       .  S
C1716      C1719   1.484       .  S
C1716      C1717   1.409       .  A
C1717      C1718   1.399       .  A
C1717      H1729   1.082       .  S
C1718      H1730   1.083       .  S
C1719      H1731   1.085       .  S
C1719      C1720   1.346       .  D
C1720      H1732   1.086       .  S
C1720      C1721   1.485       .  S
C1721      C1722   1.402   1_565  A
C1721      C1726   1.408       .  A
C1722      C1723   1.396       .  A
C1722      H1733   1.083       .  S
C1723      C1724   1.406   1_545  A
C1723      H1734   1.083       .  S
C1724      C1725   1.406       .  A
C1725      C1726   1.399       .  A
C1725      H1735   1.083       .  S
C1726      H1736   1.081       .  S
C1737      C1738   1.406       .  A
C1737      C1742   1.407       .  A
C1738      C1739   1.398       .  A
C1738      H1751   1.083       .  S
C1739      C1740   1.403       .  A
C1739      H1752   1.083       .  S
C1740      C1743   1.488       .  S
C1740      C1741   1.408       .  A
C1741      C1742   1.400       .  A
C1741      H1753   1.082       .  S
C1742      H1754   1.083       .  S
C1743      H1755   1.086       .  S
C1743      C1744   1.347       .  D
C1744      H1756   1.085       .  S
C1744      C1745   1.487       .  S
C1745      C1746   1.403       .  A
C1745      C1750   1.409       .  A
C1746      C1747   1.397       .  A
C1746      H1757   1.083       .  S
C1747      C1748   1.404       .  A
C1747      H1758   1.083       .  S
C1748      C1749   1.403       .  A
C1749      C1750   1.401       .  A
C1749      H1759   1.083       .  S
C1750      H1760   1.082       .  S
C1761      C1762   1.405       .  A
C1761      C1766   1.404       .  A
C1762      C1763   1.399       .  A
C1762      H1775   1.083       .  S
C1763      C1764   1.404       .  A
C1763      H1776   1.083       .  S
C1764      C1767   1.489       .  S
C1764      C1765   1.408       .  A
C1765      C1766   1.397       .  A
C1765      H1777   1.081       .  S
C1766      H1778   1.082       .  S
C1767      H1779   1.085       .  S
C1767      C1768   1.348       .  D
C1768      H1780   1.085       .  S
C1768      C1769   1.487       .  S
C1769      C1770   1.403       .  A
C1769      C1774   1.408       .  A
C1770      C1771   1.397       .  A
C1770      H1781   1.083       .  S
C1771      C1772   1.406       .  A
C1771      H1782   1.083       .  S
C1772      C1773   1.407       .  A
C1773      C1774   1.401       .  A
C1773      H1783   1.083       .  S
C1774      H1784   1.081       .  S
C1785      C1786   1.408       .  A
C1785      C1790   1.412       .  A
C1786      C1787   1.397       .  A
C1786      H1799   1.083       .  S
C1787      C1788   1.403       .  A
C1787      H1800   1.083       .  S
C1788      C1791   1.494       .  S
C1788      C1789   1.409       .  A
C1789      C1790   1.403       .  A
C1789      H1801   1.080       .  S
C1790      H1802   1.077       .  S
C1791      H1803   1.084       .  S
C1791      C1792   1.352       .  D
C1792      H1804   1.083       .  S
C1792      C1793   1.495       .  S
C1793      C1794   1.407       .  A
C1793      C1798   1.407       .  A
C1794      C1795   1.404       .  A
C1794      H1805   1.083       .  S
C1795      C1796   1.404       .  A
C1795      H1806   1.080       .  S
C1796      C1797   1.408       .  A
C1797      C1798   1.396       .  A
C1797      H1807   1.082       .  S
C1798      H1808   1.081       .  S
C1809      C1810   1.404       .  A
C1809      C1814   1.405       .  A
C1810      C1811   1.396       .  A
C1810      H1823   1.083       .  S
C1811      C1812   1.403       .  A
C1811      H1824   1.083       .  S
C1812      C1815   1.486       .  S
C1812      C1813   1.408       .  A
C1813      C1814   1.400       .  A
C1813      H1825   1.081       .  S
C1814      H1826   1.083       .  S
C1815      H1827   1.086       .  S
C1815      C1816   1.347       .  D
C1816      H1828   1.085       .  S
C1816      C1817   1.486       .  S
C1817      C1818   1.403       .  A
C1817      C1822   1.407       .  A
C1818      C1819   1.399       .  A
C1818      H1829   1.083       .  S
C1819      C1820   1.406       .  A
C1819      H1830   1.083       .  S
C1820      C1821   1.406       .  A
C1821      C1822   1.397       .  A
C1821      H1831   1.083       .  S
C1822      H1832   1.082       .  S
C1833      C1834   1.405       .  A
C1833      C1838   1.405       .  A
C1834      C1835   1.397       .  A
C1834      H1847   1.083       .  S
C1835      C1836   1.402       .  A
C1835      H1848   1.083       .  S
C1836      C1839   1.484       .  S
C1836      C1837   1.407       .  A
C1837      C1838   1.399       .  A
C1837      H1849   1.082       .  S
C1838      H1850   1.083       .  S
C1839      H1851   1.085       .  S
C1839      C1840   1.346       .  D
C1840      H1852   1.086       .  S
C1840      C1841   1.485       .  S
C1841      C1842   1.403       .  A
C1841      C1846   1.407       .  A
C1842      C1843   1.397       .  A
C1842      H1853   1.083       .  S
C1843      C1844   1.406       .  A
C1843      H1854   1.083       .  S
C1844      C1845   1.407       .  A
C1845      C1846   1.399       .  A
C1845      H1855   1.083       .  S
C1846      H1856   1.082       .  S
C1857      C1858   1.406       .  A
C1857      C1862   1.406       .  A
C1858      C1859   1.398       .  A
C1858      H1871   1.083       .  S
C1859      C1860   1.404       .  A
C1859      H1872   1.083       .  S
C1860      C1863   1.490       .  S
C1860      C1861   1.409       .  A
C1861      C1862   1.400       .  A
C1861      H1873   1.081       .  S
C1862      H1874   1.083       .  S
C1863      H1875   1.085       .  S
C1863      C1864   1.348       .  D
C1864      H1876   1.085       .  S
C1864      C1865   1.489       .  S
C1865      C1866   1.403       .  A
C1865      C1870   1.410       .  A
C1866      C1867   1.397       .  A
C1866      H1877   1.083       .  S
C1867      C1868   1.401       .  A
C1867      H1878   1.078       .  S
C1868      C1869   1.403       .  A
C1869      C1870   1.401       .  A
C1869      H1879   1.083       .  S
C1870      H1880   1.081       .  S
C1881      C1882   1.405       .  A
C1881      C1886   1.404       .  A
C1882      C1883   1.398       .  A
C1882      H1895   1.083       .  S
C1883      C1884   1.403       .  A
C1883      H1896   1.083       .  S
C1884      C1887   1.492       .  S
C1884      C1885   1.411       .  A
C1885      C1886   1.400       .  A
C1885      H1897   1.080       .  S
C1886      H1898   1.083       .  S
C1887      H1899   1.085       .  S
C1887      C1888   1.347       .  D
C1888      H1900   1.084       .  S
C1888      C1889   1.489       .  S
C1889      C1890   1.401       .  A
C1889      C1894   1.411       .  A
C1890      C1891   1.393       .  A
C1890      H1901   1.084       .  S
C1891      C1892   1.407       .  A
C1891      H1902   1.083       .  S
C1892      C1893   1.406       .  A
C1893      C1894   1.405       .  A
C1893      H1903   1.083       .  S
C1894      H1904   1.081       .  S
C1905      C1906   1.401       .  A
C1905      C1910   1.403       .  A
C1906      C1907   1.396       .  A
C1906      H1919   1.079       .  S
C1907      C1908   1.404       .  A
C1907      H1920   1.083       .  S
C1908      C1911   1.493       .  S
C1908      C1909   1.412       .  A
C1909      C1910   1.402       .  A
C1909      H1921   1.080       .  S
C1910      H1922   1.083       .  S
C1911      H1923   1.085       .  S
C1911      C1912   1.349       .  D
C1912      H1924   1.083       .  S
C1912      C1913   1.492       .  S
C1913      C1914   1.403       .  A
C1913      C1918   1.411       .  A
C1914      C1915   1.397       .  A
C1914      H1925   1.084       .  S
C1915      C1916   1.407       .  A
C1915      H1926   1.083       .  S
C1916      C1917   1.405       .  A
C1917      C1918   1.402       .  A
C1917      H1927   1.083       .  S
C1918      H1928   1.081       .  S
C1929      C1930   1.406       .  A
C1929      C1934   1.402       .  A
C1930      C1931   1.404       .  A
C1930      H1943   1.083       .  S
C1931      C1932   1.406       .  A
C1931      H1944   1.083       .  S
C1932      C1935   1.493       .  S
C1932      C1933   1.408       .  A
C1933      C1934   1.395       .  A
C1933      H1945   1.081       .  S
C1934      H1946   1.078       .  S
C1935      H1947   1.085       .  S
C1935      C1936   1.350       .  D
C1936      H1948   1.084       .  S
C1936      C1937   1.489       .  S
C1937      C1938   1.403       .  A
C1937      C1942   1.409       .  A
C1938      C1939   1.395       .  A
C1938      H1949   1.084       .  S
C1939      C1940   1.405       .  A
C1939      H1950   1.083       .  S
C1940      C1941   1.407       .  A
C1941      C1942   1.404       .  A
C1941      H1951   1.083       .  S
C1942      H1952   1.081       .  S
C1953      C1954   1.407       .  A
C1953      C1958   1.406       .  A
C1954      C1955   1.395       .  A
C1954      H1967   1.083       .  S
C1955      C1956   1.401       .  A
C1955      H1968   1.084       .  S
C1956      C1959   1.495       .  S
C1956      C1957   1.413       .  A
C1957      C1958   1.406       .  A
C1957      H1969   1.080       .  S
C1958      H1970   1.083       .  S
C1959      H1971   1.084       .  S
C1959      C1960   1.347       .  D
C1960      H1972   1.084       .  S
C1960      C1961   1.494       .  S
C1961      C1962   1.398       .  A
C1961      C1966   1.410       .  A
C1962      C1963   1.395       .  A
C1962      H1973   1.084       .  S
C1963      C1964   1.411       .  A
C1963      H1974   1.074       .  S
C1964      C1965   1.411       .  A
C1965      C1966   1.406       .  A
C1965      H1975   1.081       .  S
C1966      H1976   1.081       .  S
C1977      C1978   1.412       .  A
C1977      C1982   1.412       .  A
C1978      C1979   1.405       .  A
C1978      H1991   1.083       .  S
C1979      C1980   1.404       .  A
C1979      H1992   1.083       .  S
C1980      C1983   1.499       .  S
C1980      C1981   1.407       .  A
C1981      C1982   1.401       .  A
C1981      H1993   1.082       .  S
C1982      H1994   1.076       .  S
C1983      H1995   1.084       .  S
C1983      C1984   1.351       .  D
C1984      H1996   1.086       .  S
C1984      C1985   1.498       .  S
C1985      C1986   1.404       .  A
C1985      C1990   1.414       .  A
C1986      C1987   1.395       .  A
C1986      H1997   1.084       .  S
C1987      C1988   1.404       .  A
C1987      H1998   1.083       .  S
C1988      C1989   1.405       .  A
C1989      C1990   1.411       .  A
C1989      H1999   1.083       .  S
C1990      H2000   1.081       .  S
C2001      C2002   1.404       .  A
C2001      C2006   1.404       .  A
C2002      C2003   1.400       .  A
C2002      H2015   1.083       .  S
C2003      C2004   1.405       .  A
C2003      H2016   1.083       .  S
C2004      C2007   1.486       .  S
C2004      C2005   1.407       .  A
C2005      C2006   1.396       .  A
C2005      H2017   1.082       .  S
C2006      H2018   1.083       .  S
C2007      H2019   1.085       .  S
C2007      C2008   1.348       .  D
C2008      H2020   1.085       .  S
C2008      C2009   1.486       .  S
C2009      C2010   1.403       .  A
C2009      C2014   1.407       .  A
C2010      C2011   1.398       .  A
C2010      H2021   1.083       .  S
C2011      C2012   1.406       .  A
C2011      H2022   1.083       .  S
C2012      C2013   1.406       .  A
C2013      C2014   1.398       .  A
C2013      H2023   1.083       .  S
C2014      H2024   1.081       .  S
C2025      C2026   1.406       .  A
C2025      C2030   1.407   1_556  A
C2026      C2027   1.396       .  A
C2026      H2039   1.083       .  S
C2027      C2028   1.402       .  A
C2027      H2040   1.083       .  S
C2028      C2031   1.489       .  S
C2028      C2029   1.409   1_556  A
C2029      C2030   1.402       .  A
C2029      H2041   1.081       .  S
C2030      H2042   1.083       .  S
C2031      H2043   1.084       .  S
C2031      C2032   1.347       .  D
C2032      H2044   1.085   1_556  S
C2032      C2033   1.490       .  S
C2033      C2034   1.403       .  A
C2033      C2038   1.411       .  A
C2034      C2035   1.396       .  A
C2034      H2045   1.083       .  S
C2035      C2036   1.404       .  A
C2035      H2046   1.083       .  S
C2036      C2037   1.403       .  A
C2037      C2038   1.402       .  A
C2037      H2047   1.083       .  S
C2038      H2048   1.081       .  S
C2049      C2050   1.406   1_545  A
C2049      C2054   1.406       .  A
C2050      C2051   1.396       .  A
C2050      H2063   1.083       .  S
C2051      C2052   1.402   1_565  A
C2051      H2064   1.083       .  S
C2052      C2055   1.484   1_545  S
C2052      C2053   1.407       .  A
C2053      C2054   1.399       .  A
C2053      H2065   1.082       .  S
C2054      H2066   1.083       .  S
C2055      H2067   1.086       .  S
C2055      C2056   1.347   1_565  D
C2056      H2068   1.086       .  S
C2056      C2057   1.486       .  S
C2057      C2058   1.403   1_545  A
C2057      C2062   1.405       .  A
C2058      C2059   1.400       .  A
C2058      H2069   1.083       .  S
C2059      C2060   1.409   1_565  A
C2059      H2070   1.082       .  S
C2060      C2061   1.405       .  A
C2061      C2062   1.396       .  A
C2061      H2071   1.077       .  S
C2062      H2072   1.082       .  S
C2073      C2074   1.405       .  A
C2073      C2078   1.403       .  A
C2074      C2075   1.401       .  A
C2074      H2087   1.083       .  S
C2075      C2076   1.405       .  A
C2075      H2088   1.083       .  S
C2076      C2079   1.491       .  S
C2076      C2077   1.408       .  A
C2077      C2078   1.398       .  A
C2077      H2089   1.082   1_565  S
C2078      H2090   1.078   1_565  S
C2079      H2091   1.085   1_565  S
C2079      C2080   1.349       .  D
C2080      H2092   1.085       .  S
C2080      C2081   1.490       .  S
C2081      C2082   1.403       .  A
C2081      C2086   1.409   1_565  A
C2082      C2083   1.397       .  A
C2082      H2093   1.083       .  S
C2083      C2084   1.406       .  A
C2083      H2094   1.083       .  S
C2084      C2085   1.408   1_565  A
C2085      C2086   1.402       .  A
C2085      H2095   1.083       .  S
C2086      H2096   1.081       .  S
C2097      C2098   1.409       .  A
C2097      C2102   1.411       .  A
C2098      C2099   1.398       .  A
C2098      H2111   1.083       .  S
C2099      C2100   1.401       .  A
C2099      H2112   1.083       .  S
C2100      C2103   1.486       .  S
C2100      C2101   1.405       .  A
C2101      C2102   1.397       .  A
C2101      H2113   1.082       .  S
C2102      H2114   1.076       .  S
C2103      H2115   1.085       .  S
C2103      C2104   1.347       .  D
C2104      H2116   1.085       .  S
C2104      C2105   1.485       .  S
C2105      C2106   1.401       .  A
C2105      C2110   1.406       .  A
C2106      C2107   1.396       .  A
C2106      H2117   1.083       .  S
C2107      C2108   1.409       .  A
C2107      H2118   1.083       .  S
C2108      C2109   1.411       .  A
C2109      C2110   1.399       .  A
C2109      H2119   1.077       .  S
C2110      H2120   1.082       .  S
C2121      C2122   1.407       .  A
C2121      C2126   1.412       .  A
C2122      C2123   1.395       .  A
C2122      H2135   1.083       .  S
C2123      C2124   1.403       .  A
C2123      H2136   1.083       .  S
C2124      C2127   1.495       .  S
C2124      C2125   1.409       .  A
C2125      C2126   1.406       .  A
C2125      H2137   1.080       .  S
C2126      H2138   1.078       .  S
C2127      H2139   1.081       .  S
C2127      C2128   1.353       .  D
C2128      H2140   1.084       .  S
C2128      C2129   1.501       .  S
C2129      C2130   1.409       .  A
C2129      C2134   1.410       .  A
C2130      C2131   1.405       .  A
C2130      H2141   1.083       .  S
C2131      C2132   1.403       .  A
C2131      H2142   1.083       .  S
C2132      C2133   1.405       .  A
C2133      C2134   1.396       .  A
C2133      H2143   1.083       .  S
C2134      H2144   1.078       .  S
C2145      C2146   1.404       .  A
C2145      C2150   1.405       .  A
C2146      C2147   1.405       .  A
C2146      H2159   1.083       .  S
C2147      C2148   1.407       .  A
C2147      H2160   1.083       .  S
C2148      C2151   1.493       .  S
C2148      C2149   1.407       .  A
C2149      C2150   1.397       .  A
C2149      H2161   1.082       .  S
C2150      H2162   1.083       .  S
C2151      H2163   1.084       .  S
C2151      C2152   1.351       .  D
C2152      H2164   1.086       .  S
C2152      C2153   1.493       .  S
C2153      C2154   1.403       .  A
C2153      C2158   1.407       .  A
C2154      C2155   1.398       .  A
C2154      H2165   1.084       .  S
C2155      C2156   1.410       .  A
C2155      H2166   1.076   1_565  S
C2156      C2157   1.411       .  A
C2157      C2158   1.403       .  A
C2157      H2167   1.083       .  S
C2158      H2168   1.081       .  S
C2169      C2170   1.405       .  A
C2169      C2174   1.406       .  A
C2170      C2171   1.400       .  A
C2170      H2183   1.083       .  S
C2171      C2172   1.405       .  A
C2171      H2184   1.083       .  S
C2172      C2175   1.489       .  S
C2172      C2173   1.407       .  A
C2173      C2174   1.396       .  A
C2173      H2185   1.081       .  S
C2174      H2186   1.083       .  S
C2175      H2187   1.084       .  S
C2175      C2176   1.349       .  D
C2176      H2188   1.084       .  S
C2176      C2177   1.488       .  S
C2177      C2178   1.404       .  A
C2177      C2182   1.408       .  A
C2178      C2179   1.398       .  A
C2178      H2189   1.083       .  S
C2179      C2180   1.404       .  A
C2179      H2190   1.083       .  S
C2180      C2181   1.403       .  A
C2181      C2182   1.398       .  A
C2181      H2191   1.083       .  S
C2182      H2192   1.081       .  S
C2193      C2194   1.404       .  A
C2193      C2198   1.406       .  A
C2194      C2195   1.398       .  A
C2194      H2207   1.083       .  S
C2195      C2196   1.405       .  A
C2195      H2208   1.083       .  S
C2196      C2199   1.488       .  S
C2196      C2197   1.408       .  A
C2197      C2198   1.396       .  A
C2197      H2209   1.080       .  S
C2198      H2210   1.083       .  S
C2199      H2211   1.084       .  S
C2199      C2200   1.349       .  D
C2200      H2212   1.083       .  S
C2200      C2201   1.487       .  S
C2201      C2202   1.404       .  A
C2201      C2206   1.406       .  A
C2202      C2203   1.398       .  A
C2202      H2213   1.083       .  S
C2203      C2204   1.407       .  A
C2203      H2214   1.082       .  S
C2204      C2205   1.404       .  A
C2205      C2206   1.395       .  A
C2205      H2215   1.077       .  S
C2206      H2216   1.080       .  S
C2217      C2218   1.407       .  A
C2217      C2222   1.406       .  A
C2218      C2219   1.397       .  A
C2218      H2231   1.083       .  S
C2219      C2220   1.402       .  A
C2219      H2232   1.083       .  S
C2220      C2223   1.489       .  S
C2220      C2221   1.410       .  A
C2221      C2222   1.402       .  A
C2221      H2233   1.082       .  S
C2222      H2234   1.083       .  S
C2223      H2235   1.084       .  S
C2223      C2224   1.347       .  D
C2224      H2236   1.086       .  S
C2224      C2225   1.491       .  S
C2225      C2226   1.403       .  A
C2225      C2230   1.412       .  A
C2226      C2227   1.395       .  A
C2226      H2237   1.083       .  S
C2227      C2228   1.400       .  A
C2227      H2238   1.080       .  S
C2228      C2229   1.404       .  A
C2229      C2230   1.404       .  A
C2229      H2239   1.083       .  S
C2230      H2240   1.081       .  S
C2241      C2242   1.403       .  A
C2241      C2246   1.405       .  A
C2242      C2243   1.398       .  A
C2242      H2255   1.078       .  S
C2243      C2244   1.402       .  A
C2243      H2256   1.083       .  S
C2244      C2247   1.486       .  S
C2244      C2245   1.408       .  A
C2245      C2246   1.400       .  A
C2245      H2257   1.082       .  S
C2246      H2258   1.083       .  S
C2247      H2259   1.085       .  S
C2247      C2248   1.347       .  D
C2248      H2260   1.086       .  S
C2248      C2249   1.488       .  S
C2249      C2250   1.404       .  A
C2249      C2254   1.407       .  A
C2250      C2251   1.399       .  A
C2250      H2261   1.083       .  S
C2251      C2252   1.405       .  A
C2251      H2262   1.083       .  S
C2252      C2253   1.408       .  A
C2253      C2254   1.399       .  A
C2253      H2263   1.083       .  S
C2254      H2264   1.082       .  S
C2265      C2266   1.408       .  A
C2265      C2270   1.412       .  A
C2266      C2267   1.396       .  A
C2266      H2279   1.083       .  S
C2267      C2268   1.402       .  A
C2267      H2280   1.083       .  S
C2268      C2271   1.492       .  S
C2268      C2269   1.408       .  A
C2269      C2270   1.405       .  A
C2269      H2281   1.081       .  S
C2270      H2282   1.078       .  S
C2271      H2283   1.083       .  S
C2271      C2272   1.353       .  D
C2272      H2284   1.085       .  S
C2272      C2273   1.499       .  S
C2273      C2274   1.409       .  A
C2273      C2278   1.409       .  A
C2274      C2275   1.405       .  A
C2274      H2285   1.083       .  S
C2275      C2276   1.404       .  A
C2275      H2286   1.083       .  S
C2276      C2277   1.406       .  A
C2277      C2278   1.397       .  A
C2277      H2287   1.083       .  S
C2278      H2288   1.080       .  S
C2289      C2290   1.403       .  A
C2289      C2294   1.404   1_455  A
C2290      C2291   1.396       .  A
C2290      H2303   1.083       .  S
C2291      C2292   1.403       .  A
C2291      H2304   1.083       .  S
C2292      C2295   1.484       .  S
C2292      C2293   1.408   1_455  A
C2293      C2294   1.400       .  A
C2293      H2305   1.082       .  S
C2294      H2306   1.083       .  S
C2295      H2307   1.085       .  S
C2295      C2296   1.347   1_455  D
C2296      H2308   1.086       .  S
C2296      C2297   1.487       .  S
C2297      C2298   1.403       .  A
C2297      C2302   1.408   1_655  A
C2298      C2299   1.398       .  A
C2298      H2309   1.083       .  S
C2299      C2300   1.406   1_655  A
C2299      H2310   1.083       .  S
C2300      C2301   1.406       .  A
C2301      C2302   1.398       .  A
C2301      H2311   1.083       .  S
C2302      H2312   1.081       .  S
C2313      C2314   1.409       .  A
C2313      C2318   1.406       .  A
C2314      C2315   1.401       .  A
C2314      H2327   1.082       .  S
C2315      C2316   1.403       .  A
C2315      H2328   1.083       .  S
C2316      C2319   1.487       .  S
C2316      C2317   1.405       .  A
C2317      C2318   1.393       .  A
C2317      H2329   1.082       .  S
C2318      H2330   1.078       .  S
C2319      H2331   1.085       .  S
C2319      C2320   1.348       .  D
C2320      H2332   1.085       .  S
C2320      C2321   1.484       .  S
C2321      C2322   1.402       .  A
C2321      C2326   1.408       .  A
C2322      C2323   1.394       .  A
C2322      H2333   1.084       .  S
C2323      C2324   1.405       .  A
C2323      H2334   1.083       .  S
C2324      C2325   1.406       .  A
C2325      C2326   1.400       .  A
C2325      H2335   1.083       .  S
C2326      H2336   1.081       .  S
C2337      C2338   1.405       .  A
C2337      C2342   1.408       .  A
C2338      C2339   1.397       .  A
C2338      H2351   1.083       .  S
C2339      C2340   1.403       .  A
C2339      H2352   1.083       .  S
C2340      C2343   1.483       .  S
C2340      C2341   1.406       .  A
C2341      C2342   1.399       .  A
C2341      H2353   1.082       .  S
C2342      H2354   1.083       .  S
C2343      H2355   1.086       .  S
C2343      C2344   1.348       .  D
C2344      H2356   1.086       .  S
C2344      C2345   1.486       .  S
C2345      C2346   1.403       .  A
C2345      C2350   1.403       .  A
C2346      C2347   1.402       .  A
C2346      H2357   1.083       .  S
C2347      C2348   1.411       .  A
C2347      H2358   1.081       .  S
C2348      C2349   1.408       .  A
C2349      C2350   1.393       .  A
C2349      H2359   1.075       .  S
C2350      H2360   1.082       .  S
C2361      C2362   1.406       .  A
C2361      C2366   1.406       .  A
C2362      C2363   1.398       .  A
C2362      H2375   1.083       .  S
C2363      C2364   1.403       .  A
C2363      H2376   1.083       .  S
C2364      C2367   1.487       .  S
C2364      C2365   1.408       .  A
C2365      C2366   1.398       .  A
C2365      H2377   1.081       .  S
C2366      H2378   1.083       .  S
C2367      H2379   1.086       .  S
C2367      C2368   1.347       .  D
C2368      H2380   1.085       .  S
C2368      C2369   1.484       .  S
C2369      C2370   1.403       .  A
C2369      C2374   1.409       .  A
C2370      C2371   1.395       .  A
C2370      H2381   1.083       .  S
C2371      C2372   1.400       .  A
C2371      H2382   1.081       .  S
C2372      C2373   1.402       .  A
C2373      C2374   1.400       .  A
C2373      H2383   1.083       .  S
C2374      H2384   1.082       .  S
C2385      C2386   1.406       .  A
C2385      C2390   1.406       .  A
C2386      C2387   1.397       .  A
C2386      H2399   1.083       .  S
C2387      C2388   1.403       .  A
C2387      H2400   1.083       .  S
C2388      C2391   1.487       .  S
C2388      C2389   1.409       .  A
C2389      C2390   1.400       .  A
C2389      H2401   1.081       .  S
C2390      H2402   1.083       .  S
C2391      H2403   1.085       .  S
C2391      C2392   1.347       .  D
C2392      H2404   1.085       .  S
C2392      C2393   1.486       .  S
C2393      C2394   1.402       .  A
C2393      C2398   1.409       .  A
C2394      C2395   1.395       .  A
C2394      H2405   1.083       .  S
C2395      C2396   1.402       .  A
C2395      H2406   1.078       .  S
C2396      C2397   1.404       .  A
C2397      C2398   1.400       .  A
C2397      H2407   1.083       .  S
C2398      H2408   1.081       .  S
C2409      C2410   1.405       .  A
C2409      C2414   1.403       .  A
C2410      C2411   1.397       .  A
C2410      H2423   1.083       .  S
C2411      C2412   1.402       .  A
C2411      H2424   1.083       .  S
C2412      C2415   1.487       .  S
C2412      C2413   1.409       .  A
C2413      C2414   1.400       .  A
C2413      H2425   1.082       .  S
C2414      H2426   1.083       .  S
C2415      H2427   1.085       .  S
C2415      C2416   1.346       .  D
C2416      H2428   1.086       .  S
C2416      C2417   1.487       .  S
C2417      C2418   1.402       .  A
C2417      C2422   1.408       .  A
C2418      C2419   1.396       .  A
C2418      H2429   1.083       .  S
C2419      C2420   1.406       .  A
C2419      H2430   1.083       .  S
C2420      C2421   1.407       .  A
C2421      C2422   1.401       .  A
C2421      H2431   1.083       .  S
C2422      H2432   1.082       .  S
C2433      C2434   1.407       .  A
C2433      C2438   1.406       .  A
C2434      C2435   1.397       .  A
C2434      H2447   1.083       .  S
C2435      C2436   1.402       .  A
C2435      H2448   1.083       .  S
C2436      C2439   1.485       .  S
C2436      C2437   1.408       .  A
C2437      C2438   1.400       .  A
C2437      H2449   1.082       .  S
C2438      H2450   1.083       .  S
C2439      H2451   1.085       .  S
C2439      C2440   1.347       .  D
C2440      H2452   1.086       .  S
C2440      C2441   1.488       .  S
C2441      C2442   1.405       .  A
C2441      C2446   1.407       .  A
C2442      C2443   1.400       .  A
C2442      H2453   1.083       .  S
C2443      C2444   1.404       .  A
C2443      H2454   1.083       .  S
C2444      C2445   1.404       .  A
C2445      C2446   1.396       .  A
C2445      H2455   1.083       .  S
C2446      H2456   1.081       .  S
C2457      C2458   1.408       .  A
C2457      C2462   1.409       .  A
C2458      C2459   1.394       .  A
C2458      H2471   1.076       .  S
C2459      C2460   1.401       .  A
C2459      H2472   1.084       .  S
C2460      C2463   1.491       .  S
C2460      C2461   1.409       .  A
C2461      C2462   1.402       .  A
C2461      H2473   1.080       .  S
C2462      H2474   1.081       .  S
C2463      H2475   1.084       .  S
C2463      C2464   1.348       .  D
C2464      H2476   1.083       .  S
C2464      C2465   1.491       .  S
C2465      C2466   1.403       .  A
C2465      C2470   1.411       .  A
C2466      C2467   1.397       .  A
C2466      H2477   1.083       .  S
C2467      C2468   1.407       .  A
C2467      H2478   1.083       .  S
C2468      C2469   1.404       .  A
C2469      C2470   1.399       .  A
C2469      H2479   1.083       .  S
C2470      H2480   1.080       .  S
C2481      C2482   1.408       .  A
C2481      C2486   1.412       .  A
C2482      C2483   1.399       .  A
C2482      H2495   1.083       .  S
C2483      C2484   1.404       .  A
C2483      H2496   1.083       .  S
C2484      C2487   1.494       .  S
C2484      C2485   1.407       .  A
C2485      C2486   1.401       .  A
C2485      H2497   1.081       .  S
C2486      H2498   1.077       .  S
C2487      H2499   1.082       .  S
C2487      C2488   1.353       .  D
C2488      H2500   1.084       .  S
C2488      C2489   1.498       .  S
C2489      C2490   1.408       .  A
C2489      C2494   1.410       .  A
C2490      C2491   1.403       .  A
C2490      H2501   1.083       .  S
C2491      C2492   1.403       .  A
C2491      H2502   1.083       .  S
C2492      C2493   1.405       .  A
C2493      C2494   1.400       .  A
C2493      H2503   1.083       .  S
C2494      H2504   1.079       .  S
C2505      C2506   1.406       .  A
C2505      C2510   1.406       .  A
C2506      C2507   1.397       .  A
C2506      H2519   1.083       .  S
C2507      C2508   1.403       .  A
C2507      H2520   1.083       .  S
C2508      C2511   1.486       .  S
C2508      C2509   1.408       .  A
C2509      C2510   1.397       .  A
C2509      H2521   1.081       .  S
C2510      H2522   1.083       .  S
C2511      H2523   1.085       .  S
C2511      C2512   1.347       .  D
C2512      H2524   1.085       .  S
C2512      C2513   1.485       .  S
C2513      C2514   1.403       .  A
C2513      C2518   1.409       .  A
C2514      C2515   1.396       .  A
C2514      H2525   1.083       .  S
C2515      C2516   1.401       .  A
C2515      H2526   1.079       .  S
C2516      C2517   1.403       .  A
C2517      C2518   1.399       .  A
C2517      H2527   1.083       .  S
C2518      H2528   1.081       .  S
C2529      C2530   1.405       .  A
C2529      C2534   1.403       .  A
C2530      C2531   1.397       .  A
C2530      H2543   1.083       .  S
C2531      C2532   1.403       .  A
C2531      H2544   1.083       .  S
C2532      C2535   1.485       .  S
C2532      C2533   1.408       .  A
C2533      C2534   1.398       .  A
C2533      H2545   1.081       .  S
C2534      H2546   1.083       .  S
C2535      H2547   1.084       .  S
C2535      C2536   1.348       .  D
C2536      H2548   1.085       .  S
C2536      C2537   1.487       .  S
C2537      C2538   1.404       .  A
C2537      C2542   1.408       .  A
C2538      C2539   1.398       .  A
C2538      H2549   1.083       .  S
C2539      C2540   1.405       .  A
C2539      H2550   1.083       .  S
C2540      C2541   1.405       .  A
C2541      C2542   1.396       .  A
C2541      H2551   1.083       .  S
C2542      H2552   1.080       .  S
C2553      C2554   1.405       .  A
C2553      C2558   1.404       .  A
C2554      C2555   1.395       .  A
C2554      H2567   1.083       .  S
C2555      C2556   1.403       .  A
C2555      H2568   1.084       .  S
C2556      C2559   1.496       .  S
C2556      C2557   1.413       .  A
C2557      C2558   1.407       .  A
C2557      H2569   1.080       .  S
C2558      H2570   1.082       .  S
C2559      H2571   1.086       .  S
C2559      C2560   1.350       .  D
C2560      H2572   1.083       .  S
C2560      C2561   1.494       .  S
C2561      C2562   1.402       .  A
C2561      C2566   1.407       .  A
C2562      C2563   1.401       .  A
C2562      H2573   1.083       .  S
C2563      C2564   1.410       .  A
C2563      H2574   1.083       .  S
C2564      C2565   1.412       .  A
C2565      C2566   1.401       .  A
C2565      H2575   1.077       .  S
C2566      H2576   1.082       .  S
C2577      C2578   1.408       .  A
C2577      C2582   1.403       .  A
C2578      C2579   1.401       .  A
C2578      H2591   1.082       .  S
C2579      C2580   1.403       .  A
C2579      H2592   1.084       .  S
C2580      C2583   1.485       .  S
C2580      C2581   1.405       .  A
C2581      C2582   1.394       .  A
C2581      H2593   1.082       .  S
C2582      H2594   1.080       .  S
C2583      H2595   1.086       .  S
C2583      C2584   1.347       .  D
C2584      H2596   1.086       .  S
C2584      C2585   1.484       .  S
C2585      C2586   1.402       .  A
C2585      C2590   1.407       .  A
C2586      C2587   1.397       .  A
C2586      H2597   1.084       .  S
C2587      C2588   1.407       .  A
C2587      H2598   1.083       .  S
C2588      C2589   1.407       .  A
C2589      C2590   1.400       .  A
C2589      H2599   1.083       .  S
C2590      H2600   1.082       .  S
C2601      C2602   1.407       .  A
C2601      C2606   1.402       .  A
C2602      C2603   1.398       .  A
C2602      H2615   1.082       .  S
C2603      C2604   1.403       .  A
C2603      H2616   1.084       .  S
C2604      C2607   1.483       .  S
C2604      C2605   1.406       .  A
C2605      C2606   1.394       .  A
C2605      H2617   1.081       .  S
C2606      H2618   1.080       .  S
C2607      H2619   1.086       .  S
C2607      C2608   1.347       .  D
C2608      H2620   1.085       .  S
C2608      C2609   1.482       .  S
C2609      C2610   1.403       .  A
C2609      C2614   1.406       .  A
C2610      C2611   1.399       .  A
C2610      H2621   1.083       .  S
C2611      C2612   1.406       .  A
C2611      H2622   1.083       .  S
C2612      C2613   1.405       .  A
C2613      C2614   1.393       .  A
C2613      H2623   1.083       .  S
C2614      H2624   1.081       .  S
C2625      C2626   1.403       .  A
C2625      C2630   1.404       .  A
C2626      C2627   1.394       .  A
C2626      H2639   1.083       .  S
C2627      C2628   1.402       .  A
C2627      H2640   1.083       .  S
C2628      C2631   1.485       .  S
C2628      C2629   1.410       .  A
C2629      C2630   1.403       .  A
C2629      H2641   1.082       .  S
C2630      H2642   1.083       .  S
C2631      H2643   1.086       .  S
C2631      C2632   1.346       .  D
C2632      H2644   1.086       .  S
C2632      C2633   1.488       .  S
C2633      C2634   1.402       .  A
C2633      C2638   1.408       .  A
C2634      C2635   1.398       .  A
C2634      H2645   1.083       .  S
C2635      C2636   1.406       .  A
C2635      H2646   1.083       .  S
C2636      C2637   1.406       .  A
C2637      C2638   1.400       .  A
C2637      H2647   1.083       .  S
C2638      H2648   1.082       .  S
C2649      C2650   1.403       .  A
C2649      C2654   1.407       .  A
C2650      C2651   1.405       .  A
C2650      H2663   1.082       .  S
C2651      C2652   1.409       .  A
C2651      H2664   1.083       .  S
C2652      C2655   1.495       .  S
C2652      C2653   1.407       .  A
C2653      C2654   1.394       .  A
C2653      H2665   1.080       .  S
C2654      H2666   1.082       .  S
C2655      H2667   1.083       .  S
C2655      C2656   1.353       .  D
C2656      H2668   1.084       .  S
C2656      C2657   1.493       .  S
C2657      C2658   1.404       .  A
C2657      C2662   1.407       .  A
C2658      C2659   1.398       .  A
C2658      H2669   1.083       .  S
C2659      C2660   1.407       .  A
C2659      H2670   1.083       .  S
C2660      C2661   1.412       .  A
C2661      C2662   1.402       .  A
C2661      H2671   1.076       .  S
C2662      H2672   1.080       .  S
C2673      C2674   1.402       .  A
C2673      C2678   1.404   1_556  A
C2674      C2675   1.395       .  A
C2674      H2687   1.079       .  S
C2675      C2676   1.402       .  A
C2675      H2688   1.083       .  S
C2676      C2679   1.488       .  S
C2676      C2677   1.410   1_556  A
C2677      C2678   1.402       .  A
C2677      H2689   1.081       .  S
C2678      H2690   1.083       .  S
C2679      H2691   1.085       .  S
C2679      C2680   1.347   1_556  D
C2680      H2692   1.085       .  S
C2680      C2681   1.490       .  S
C2681      C2682   1.403       .  A
C2681      C2686   1.409   1_554  A
C2682      C2683   1.398       .  A
C2682      H2693   1.083       .  S
C2683      C2684   1.406   1_554  A
C2683      H2694   1.083       .  S
C2684      C2685   1.406       .  A
C2685      C2686   1.399       .  A
C2685      H2695   1.083       .  S
C2686      H2696   1.081       .  S
C2697      C2698   1.411       .  A
C2697      C2702   1.409       .  A
C2698      C2699   1.402       .  A
C2698      H2711   1.080       .  S
C2699      C2700   1.403       .  A
C2699      H2712   1.083       .  S
C2700      C2703   1.491       .  S
C2700      C2701   1.404       .  A
C2701      C2702   1.394       .  A
C2701      H2713   1.081       .  S
C2702      H2714   1.075       .  S
C2703      H2715   1.083       .  S
C2703      C2704   1.351       .  D
C2704      H2716   1.085       .  S
C2704      C2705   1.492       .  S
C2705      C2706   1.405       .  A
C2705      C2710   1.409       .  A
C2706      C2707   1.397       .  A
C2706      H2717   1.083       .  S
C2707      C2708   1.404       .  A
C2707      H2718   1.083       .  S
C2708      C2709   1.407       .  A
C2709      C2710   1.401       .  A
C2709      H2719   1.083       .  S
C2710      H2720   1.079       .  S
C2721      C2722   1.402       .  A
C2721      C2726   1.403       .  A
C2722      C2723   1.396       .  A
C2722      H2735   1.083       .  S
C2723      C2724   1.403       .  A
C2723      H2736   1.083       .  S
C2724      C2727   1.486       .  S
C2724      C2725   1.409       .  A
C2725      C2726   1.404       .  A
C2725      H2737   1.082       .  S
C2726      H2738   1.083       .  S
C2727      H2739   1.085       .  S
C2727      C2728   1.348       .  D
C2728      H2740   1.086       .  S
C2728      C2729   1.491       .  S
C2729      C2730   1.402       .  A
C2729      C2734   1.406       .  A
C2730      C2731   1.400       .  A
C2730      H2741   1.083       .  S
C2731      C2732   1.410       .  A
C2731      H2742   1.083       .  S
C2732      C2733   1.411       .  A
C2733      C2734   1.400       .  A
C2733      H2743   1.076       .  S
C2734      H2744   1.082       .  S
C2745      C2746   1.407       .  A
C2745      C2750   1.405   1_554  A
C2746      C2747   1.400       .  A
C2746      H2759   1.083       .  S
C2747      C2748   1.403       .  A
C2747      H2760   1.083       .  S
C2748      C2751   1.485       .  S
C2748      C2749   1.407   1_554  A
C2749      C2750   1.394       .  A
C2749      H2761   1.082       .  S
C2750      H2762   1.083       .  S
C2751      H2763   1.085       .  S
C2751      C2752   1.346   1_554  D
C2752      H2764   1.085       .  S
C2752      C2753   1.482       .  S
C2753      C2754   1.401       .  A
C2753      C2758   1.409   1_556  A
C2754      C2755   1.393       .  A
C2754      H2765   1.084       .  S
C2755      C2756   1.403   1_556  A
C2755      H2766   1.083       .  S
C2756      C2757   1.404       .  A
C2757      C2758   1.401       .  A
C2757      H2767   1.083       .  S
C2758      H2768   1.081       .  S
C2769      C2770   1.402   1_455  A
C2769      C2774   1.404   1_556  A
C2770      C2771   1.393       .  A
C2770      H2783   1.083       .  S
C2771      C2772   1.401   1_655  A
C2771      H2784   1.083       .  S
C2772      C2775   1.480       .  S
C2772      C2773   1.408   1_556  A
C2773      C2774   1.399       .  A
C2773      H2785   1.082       .  S
C2774      H2786   1.083       .  S
C2775      H2787   1.086       .  S
C2775      C2776   1.344   1_455  D
C2776      H2788   1.086   1_556  S
C2776      C2777   1.482       .  S
C2777      C2778   1.401   1_556  A
C2777      C2782   1.407   1_655  A
C2778      C2779   1.396       .  A
C2778      H2789   1.083       .  S
C2779      C2780   1.406   1_554  A
C2779      H2790   1.083       .  S
C2780      C2781   1.405   1_655  A
C2781      C2782   1.396       .  A
C2781      H2791   1.083       .  S
C2782      H2792   1.082       .  S
C2793      C2794   1.402   1_455  A
C2793      C2798   1.405       .  A
C2794      C2795   1.395       .  A
C2794      H2807   1.078       .  S
C2795      C2796   1.402   1_655  A
C2795      H2808   1.084       .  S
C2796      C2799   1.489       .  S
C2796      C2797   1.410       .  A
C2797      C2798   1.400       .  A
C2797      H2809   1.080       .  S
C2798      H2810   1.083       .  S
C2799      H2811   1.085   1_455  S
C2799      C2800   1.346       .  D
C2800      H2812   1.084       .  S
C2800      C2801   1.486       .  S
C2801      C2802   1.401       .  A
C2801      C2806   1.410       .  A
C2802      C2803   1.394       .  A
C2802      H2813   1.084       .  S
C2803      C2804   1.407       .  A
C2803      H2814   1.083       .  S
C2804      C2805   1.405   1_455  A
C2805      C2806   1.401   1_655  A
C2805      H2815   1.083       .  S
C2806      H2816   1.081   1_455  S
C2817      C2818   1.409       .  A
C2817      C2822   1.410       .  A
C2818      C2819   1.394       .  A
C2818      H2831   1.083       .  S
C2819      C2820   1.400       .  A
C2819      H2832   1.083       .  S
C2820      C2823   1.485       .  S
C2820      C2821   1.407       .  A
C2821      C2822   1.401       .  A
C2821      H2833   1.082       .  S
C2822      H2834   1.077   1_554  S
C2823      H2835   1.085       .  S
C2823      C2824   1.347       .  D
C2824      H2836   1.085       .  S
C2824      C2825   1.487       .  S
C2825      C2826   1.401       .  A
C2825      C2830   1.406       .  A
C2826      C2827   1.397       .  A
C2826      H2837   1.083       .  S
C2827      C2828   1.409       .  A
C2827      H2838   1.083       .  S
C2828      C2829   1.411       .  A
C2829      C2830   1.398       .  A
C2829      H2839   1.076       .  S
C2830      H2840   1.081       .  S
C2841      C2842   1.404       .  A
C2841      C2846   1.403       .  A
C2842      C2843   1.395       .  A
C2842      H2855   1.083       .  S
C2843      C2844   1.404       .  A
C2843      H2856   1.084       .  S
C2844      C2847   1.493       .  S
C2844      C2845   1.412       .  A
C2845      C2846   1.405       .  A
C2845      H2857   1.080       .  S
C2846      H2858   1.083       .  S
C2847      H2859   1.086       .  S
C2847      C2848   1.349       .  D
C2848      H2860   1.084       .  S
C2848      C2849   1.492       .  S
C2849      C2850   1.402       .  A
C2849      C2854   1.407       .  A
C2850      C2851   1.400       .  A
C2850      H2861   1.083       .  S
C2851      C2852   1.410       .  A
C2851      H2862   1.083       .  S
C2852      C2853   1.411       .  A
C2853      C2854   1.399       .  A
C2853      H2863   1.076       .  S
C2854      H2864   1.082       .  S
C2865      C2866   1.405       .  A
C2865      C2870   1.409       .  A
C2866      C2867   1.395       .  A
C2866      H2879   1.076       .  S
C2867      C2868   1.401       .  A
C2867      H2880   1.084       .  S
C2868      C2871   1.491       .  S
C2868      C2869   1.409       .  A
C2869      C2870   1.403       .  A
C2869      H2881   1.081   1_565  S
C2870      H2882   1.082   1_565  S
C2871      H2883   1.085       .  S
C2871      C2872   1.348       .  D
C2872      H2884   1.084   1_565  S
C2872      C2873   1.490       .  S
C2873      C2874   1.403   1_565  A
C2873      C2878   1.409       .  A
C2874      C2875   1.399       .  A
C2874      H2885   1.083       .  S
C2875      C2876   1.407   1_545  A
C2875      H2886   1.083       .  S
C2876      C2877   1.406       .  A
C2877      C2878   1.400       .  A
C2877      H2887   1.083       .  S
C2878      H2888   1.081       .  S
C2889      C2890   1.404   1_565  A
C2889      C2894   1.407       .  A
C2890      C2891   1.394       .  A
C2890      H2903   1.083       .  S
C2891      C2892   1.402   1_545  A
C2891      H2904   1.084       .  S
C2892      C2895   1.485       .  S
C2892      C2893   1.408       .  A
C2893      C2894   1.401       .  A
C2893      H2905   1.081       .  S
C2894      H2906   1.083       .  S
C2895      H2907   1.085   1_565  S
C2895      C2896   1.348       .  D
C2896      H2908   1.085       .  S
C2896      C2897   1.488       .  S
C2897      C2898   1.405       .  A
C2897      C2902   1.407       .  A
C2898      C2899   1.401       .  A
C2898      H2909   1.083       .  S
C2899      C2900   1.407       .  A
C2899      H2910   1.083       .  S
C2900      C2901   1.401       .  A
C2901      C2902   1.393       .  A
C2901      H2911   1.077       .  S
C2902      H2912   1.081       .  S
C2913      C2914   1.406       .  A
C2913      C2918   1.405       .  A
C2914      C2915   1.397       .  A
C2914      H2927   1.083       .  S
C2915      C2916   1.403       .  A
C2915      H2928   1.083       .  S
C2916      C2919   1.486       .  S
C2916      C2917   1.409       .  A
C2917      C2918   1.398       .  A
C2917      H2929   1.081       .  S
C2918      H2930   1.083       .  S
C2919      H2931   1.085       .  S
C2919      C2920   1.346       .  D
C2920      H2932   1.085       .  S
C2920      C2921   1.485       .  S
C2921      C2922   1.403       .  A
C2921      C2926   1.409       .  A
C2922      C2923   1.396       .  A
C2922      H2933   1.083       .  S
C2923      C2924   1.404       .  A
C2923      H2934   1.083       .  S
C2924      C2925   1.404       .  A
C2925      C2926   1.398       .  A
C2925      H2935   1.083       .  S
C2926      H2936   1.081       .  S
C2937      C2938   1.410       .  A
C2937      C2942   1.409       .  A
C2938      C2939   1.397       .  A
C2938      H2951   1.076   1_545  S
C2939      C2940   1.401       .  A
C2939      H2952   1.084       .  S
C2940      C2943   1.489       .  S
C2940      C2941   1.407       .  A
C2941      C2942   1.399       .  A
C2941      H2953   1.080       .  S
C2942      H2954   1.083       .  S
C2943      H2955   1.085       .  S
C2943      C2944   1.347       .  D
C2944      H2956   1.084       .  S
C2944      C2945   1.486       .  S
C2945      C2946   1.402       .  A
C2945      C2950   1.410       .  A
C2946      C2947   1.396       .  A
C2946      H2957   1.083       .  S
C2947      C2948   1.404       .  A
C2947      H2958   1.083       .  S
C2948      C2949   1.401       .  A
C2949      C2950   1.401       .  A
C2949      H2959   1.082       .  S
C2950      H2960   1.082       .  S
C2961      C2962   1.407       .  A
C2961      C2966   1.404   1_556  A
C2962      C2963   1.400       .  A
C2962      H2975   1.082       .  S
C2963      C2964   1.404       .  A
C2963      H2976   1.083       .  S
C2964      C2967   1.488       .  S
C2964      C2965   1.406   1_556  A
C2965      C2966   1.396       .  A
C2965      H2977   1.081       .  S
C2966      H2978   1.076       .  S
C2967      H2979   1.084       .  S
C2967      C2968   1.349       .  D
C2968      H2980   1.085   1_556  S
C2968      C2969   1.488       .  S
C2969      C2970   1.404   1_556  A
C2969      C2974   1.408       .  A
C2970      C2971   1.399       .  A
C2970      H2981   1.083       .  S
C2971      C2972   1.405   1_554  A
C2971      H2982   1.083       .  S
C2972      C2973   1.406       .  A
C2973      C2974   1.398       .  A
C2973      H2983   1.083       .  S
C2974      H2984   1.081       .  S
C2985      C2986   1.406       .  A
C2985      C2990   1.402       .  A
C2986      C2987   1.400       .  A
C2986      H2999   1.083       .  S
C2987      C2988   1.404       .  A
C2987      H3000   1.083       .  S
C2988      C2991   1.489       .  S
C2988      C2989   1.408       .  A
C2989      C2990   1.398       .  A
C2989      H3001   1.081       .  S
C2990      H3002   1.077       .  S
C2991      H3003   1.085       .  S
C2991      C2992   1.348       .  D
C2992      H3004   1.085       .  S
C2992      C2993   1.489       .  S
C2993      C2994   1.403       .  A
C2993      C2998   1.409       .  A
C2994      C2995   1.397       .  A
C2994      H3005   1.083       .  S
C2995      C2996   1.406       .  A
C2995      H3006   1.083       .  S
C2996      C2997   1.407       .  A
C2997      C2998   1.403       .  A
C2997      H3007   1.083       .  S
C2998      H3008   1.081       .  S
C3009      C3010   1.405       .  A
C3009      C3014   1.407   1_455  A
C3010      C3011   1.399       .  A
C3010      H3023   1.083       .  S
C3011      C3012   1.406       .  A
C3011      H3024   1.083       .  S
C3012      C3015   1.493       .  S
C3012      C3013   1.409   1_455  A
C3013      C3014   1.399       .  A
C3013      H3025   1.079       .  S
C3014      H3026   1.083       .  S
C3015      H3027   1.084       .  S
C3015      C3016   1.351   1_455  D
C3016      H3028   1.082       .  S
C3016      C3017   1.490       .  S
C3017      C3018   1.404       .  A
C3017      C3022   1.407   1_655  A
C3018      C3019   1.400       .  A
C3018      H3029   1.083       .  S
C3019      C3020   1.407   1_655  A
C3019      H3030   1.082       .  S
C3020      C3021   1.406       .  A
C3021      C3022   1.397       .  A
C3021      H3031   1.078       .  S
C3022      H3032   1.081       .  S
C3033      C3034   1.400       .  A
C3033      C3038   1.403   1_655  A
C3034      C3035   1.396       .  A
C3034      H3047   1.080       .  S
C3035      C3036   1.403       .  A
C3035      H3048   1.083       .  S
C3036      C3039   1.487       .  S
C3036      C3037   1.410       .  A
C3037      C3038   1.402   1_655  A
C3037      H3049   1.082   1_655  S
C3038      H3050   1.083       .  S
C3039      H3051   1.083       .  S
C3039      C3040   1.348   1_655  D
C3040      H3052   1.086       .  S
C3040      C3041   1.492       .  S
C3041      C3042   1.404       .  A
C3041      C3046   1.410   1_455  A
C3042      C3043   1.398       .  A
C3042      H3053   1.083       .  S
C3043      C3044   1.406       .  A
C3043      H3054   1.083       .  S
C3044      C3045   1.405   1_455  A
C3045      C3046   1.400       .  A
C3045      H3055   1.083       .  S
C3046      H3056   1.080       .  S
C3057      C3058   1.406       .  A
C3057      C3062   1.407       .  A
C3058      C3059   1.401       .  A
C3058      H3071   1.083       .  S
C3059      C3060   1.405       .  A
C3059      H3072   1.083       .  S
C3060      C3063   1.489       .  S
C3060      C3061   1.407       .  A
C3061      C3062   1.397       .  A
C3061      H3073   1.082       .  S
C3062      H3074   1.083       .  S
C3063      H3075   1.085       .  S
C3063      C3064   1.348       .  D
C3064      H3076   1.086       .  S
C3064      C3065   1.487       .  S
C3065      C3066   1.403       .  A
C3065      C3070   1.409       .  A
C3066      C3067   1.397       .  A
C3066      H3077   1.083       .  S
C3067      C3068   1.404       .  A
C3067      H3078   1.083       .  S
C3068      C3069   1.404       .  A
C3069      C3070   1.402       .  A
C3069      H3079   1.083       .  S
C3070      H3080   1.082       .  S
C3081      C3082   1.410       .  A
C3081      C3086   1.411       .  A
C3082      C3083   1.398       .  A
C3082      H3095   1.083       .  S
C3083      C3084   1.401       .  A
C3083      H3096   1.083       .  S
C3084      C3087   1.488       .  S
C3084      C3085   1.406       .  A
C3085      C3086   1.399       .  A
C3085      H3097   1.082       .  S
C3086      H3098   1.076       .  S
C3087      H3099   1.085       .  S
C3087      C3088   1.348       .  D
C3088      H3100   1.085       .  S
C3088      C3089   1.488       .  S
C3089      C3090   1.401       .  A
C3089      C3094   1.406       .  A
C3090      C3091   1.396       .  A
C3090      H3101   1.083       .  S
C3091      C3092   1.408       .  A
C3091      H3102   1.083       .  S
C3092      C3093   1.412       .  A
C3093      C3094   1.400       .  A
C3093      H3103   1.077       .  S
C3094      H3104   1.081       .  S
C3105      C3106   1.404       .  A
C3105      C3110   1.403       .  A
C3106      C3107   1.394       .  A
C3106      H3119   1.083       .  S
C3107      C3108   1.403       .  A
C3107      H3120   1.084       .  S
C3108      C3111   1.488       .  S
C3108      C3109   1.411       .  A
C3109      C3110   1.403       .  A
C3109      H3121   1.081       .  S
C3110      H3122   1.083       .  S
C3111      H3123   1.086       .  S
C3111      C3112   1.347       .  D
C3112      H3124   1.084       .  S
C3112      C3113   1.489       .  S
C3113      C3114   1.402       .  A
C3113      C3118   1.406       .  A
C3114      C3115   1.400       .  A
C3114      H3125   1.083       .  S
C3115      C3116   1.410       .  A
C3115      H3126   1.083       .  S
C3116      C3117   1.410       .  A
C3117      C3118   1.396       .  A
C3117      H3127   1.076       .  S
C3118      H3128   1.082       .  S
C3129      C3130   1.411       .  A
C3129      C3134   1.411       .  A
C3130      C3131   1.396       .  A
C3130      H3143   1.076   1_655  S
C3131      C3132   1.402       .  A
C3131      H3144   1.084       .  S
C3132      C3135   1.490       .  S
C3132      C3133   1.407       .  A
C3133      C3134   1.403       .  A
C3133      H3145   1.081       .  S
C3134      H3146   1.083       .  S
C3135      H3147   1.085       .  S
C3135      C3136   1.350       .  D
C3136      H3148   1.085       .  S
C3136      C3137   1.491       .  S
C3137      C3138   1.406       .  A
C3137      C3142   1.407       .  A
C3138      C3139   1.403       .  A
C3138      H3149   1.083       .  S
C3139      C3140   1.404       .  A
C3139      H3150   1.083       .  S
C3140      C3141   1.404       .  A
C3141      C3142   1.396       .  A
C3141      H3151   1.083       .  S
C3142      H3152   1.082       .  S
C3153      C3154   1.405       .  A
C3153      C3158   1.403       .  A
C3154      C3155   1.404       .  A
C3154      H3167   1.083       .  S
C3155      C3156   1.407       .  A
C3155      H3168   1.083       .  S
C3156      C3159   1.495       .  S
C3156      C3157   1.409       .  A
C3157      C3158   1.396       .  A
C3157      H3169   1.080       .  S
C3158      H3170   1.083       .  S
C3159      H3171   1.085       .  S
C3159      C3160   1.351       .  D
C3160      H3172   1.084       .  S
C3160      C3161   1.489       .  S
C3161      C3162   1.402       .  A
C3161      C3166   1.406       .  A
C3162      C3163   1.396       .  A
C3162      H3173   1.083       .  S
C3163      C3164   1.408       .  A
C3163      H3174   1.083       .  S
C3164      C3165   1.413       .  A
C3165      C3166   1.404       .  A
C3165      H3175   1.078       .  S
C3166      H3176   1.082       .  S
C3177      C3178   1.406   1_556  A
C3177      C3182   1.407       .  A
C3178      C3179   1.399       .  A
C3178      H3191   1.083       .  S
C3179      C3180   1.404   1_554  A
C3179      H3192   1.083       .  S
C3180      C3183   1.491       .  S
C3180      C3181   1.409       .  A
C3181      C3182   1.399       .  A
C3181      H3193   1.081       .  S
C3182      H3194   1.083       .  S
C3183      H3195   1.085       .  S
C3183      C3184   1.348       .  D
C3184      H3196   1.084       .  S
C3184      C3185   1.488       .  S
C3185      C3186   1.403       .  A
C3185      C3190   1.409       .  A
C3186      C3187   1.396       .  A
C3186      H3197   1.083       .  S
C3187      C3188   1.403       .  A
C3187      H3198   1.083       .  S
C3188      C3189   1.405       .  A
C3189      C3190   1.402       .  A
C3189      H3199   1.083       .  S
C3190      H3200   1.082       .  S
C3201      C3202   1.410       .  A
C3201      C3206   1.407   1_556  A
C3202      C3203   1.401       .  A
C3202      H3215   1.081       .  S
C3203      C3204   1.402       .  A
C3203      H3216   1.083       .  S
C3204      C3207   1.487       .  S
C3204      C3205   1.404   1_556  A
C3205      C3206   1.395       .  A
C3205      H3217   1.082       .  S
C3206      H3218   1.077       .  S
C3207      H3219   1.086       .  S
C3207      C3208   1.347   1_556  D
C3208      H3220   1.086       .  S
C3208      C3209   1.485   1_554  S
C3209      C3210   1.402   1_556  A
C3209      C3214   1.408       .  A
C3210      C3211   1.395       .  A
C3210      H3221   1.084       .  S
C3211      C3212   1.406       .  A
C3211      H3222   1.083       .  S
C3212      C3213   1.407   1_554  A
C3213      C3214   1.402       .  A
C3213      H3223   1.083       .  S
C3214      H3224   1.082       .  S
C3225      C3226   1.406       .  A
C3225      C3230   1.406   1_556  A
C3226      C3227   1.398       .  A
C3226      H3239   1.083       .  S
C3227      C3228   1.404       .  A
C3227      H3240   1.083       .  S
C3228      C3231   1.488       .  S
C3228      C3229   1.408   1_556  A
C3229      C3230   1.398       .  A
C3229      H3241   1.080       .  S
C3230      H3242   1.083       .  S
C3231      H3243   1.085       .  S
C3231      C3232   1.348   1_556  D
C3232      H3244   1.084       .  S
C3232      C3233   1.486   1_554  S
C3233      C3234   1.403   1_556  A
C3233      C3238   1.407       .  A
C3234      C3235   1.398       .  A
C3234      H3245   1.083       .  S
C3235      C3236   1.406   1_554  A
C3235      H3246   1.082       .  S
C3236      C3237   1.403       .  A
C3237      C3238   1.396       .  A
C3237      H3247   1.078       .  S
C3238      H3248   1.081       .  S
C3249      C3250   1.408       .  A
C3249      C3254   1.406       .  A
C3250      C3251   1.399       .  A
C3250      H3263   1.083       .  S
C3251      C3252   1.403       .  A
C3251      H3264   1.083       .  S
C3252      C3255   1.491       .  S
C3252      C3253   1.409       .  A
C3253      C3254   1.402       .  A
C3253      H3265   1.081       .  S
C3254      H3266   1.083       .  S
C3255      H3267   1.086       .  S
C3255      C3256   1.348       .  D
C3256      H3268   1.085       .  S
C3256      C3257   1.490       .  S
C3257      C3258   1.404       .  A
C3257      C3262   1.409       .  A
C3258      C3259   1.398       .  A
C3258      H3269   1.083       .  S
C3259      C3260   1.403       .  A
C3259      H3270   1.083       .  S
C3260      C3261   1.405       .  A
C3261      C3262   1.402       .  A
C3261      H3271   1.083       .  S
C3262      H3272   1.082       .  S
C3273      C3274   1.404       .  A
C3273      C3278   1.404       .  A
C3274      C3275   1.397       .  A
C3274      H3287   1.083       .  S
C3275      C3276   1.403       .  A
C3275      H3288   1.083       .  S
C3276      C3279   1.489       .  S
C3276      C3277   1.410       .  A
C3277      C3278   1.402       .  A
C3277      H3289   1.082       .  S
C3278      H3290   1.083       .  S
C3279      H3291   1.085       .  S
C3279      C3280   1.347       .  D
C3280      H3292   1.085       .  S
C3280      C3281   1.489       .  S
C3281      C3282   1.403   1_554  A
C3281      C3286   1.408       .  A
C3282      C3283   1.397       .  A
C3282      H3293   1.083       .  S
C3283      C3284   1.405   1_556  A
C3283      H3294   1.083       .  S
C3284      C3285   1.408       .  A
C3285      C3286   1.402       .  A
C3285      H3295   1.083       .  S
C3286      H3296   1.082       .  S
C3297      C3298   1.405       .  A
C3297      C3302   1.404   1_554  A
C3298      C3299   1.399       .  A
C3298      H3311   1.082       .  S
C3299      C3300   1.403       .  A
C3299      H3312   1.083       .  S
C3300      C3303   1.485       .  S
C3300      C3301   1.407   1_554  A
C3301      C3302   1.396       .  A
C3301      H3313   1.082       .  S
C3302      H3314   1.082       .  S
C3303      H3315   1.086       .  S
C3303      C3304   1.346   1_554  D
C3304      H3316   1.085       .  S
C3304      C3305   1.482       .  S
C3305      C3306   1.401       .  A
C3305      C3310   1.407   1_556  A
C3306      C3307   1.396       .  A
C3306      H3317   1.083       .  S
C3307      C3308   1.406       .  A
C3307      H3318   1.083       .  S
C3308      C3309   1.407   1_556  A
C3309      C3310   1.400       .  A
C3309      H3319   1.083       .  S
C3310      H3320   1.082       .  S
C3321      C3322   1.410       .  A
C3321      C3326   1.412       .  A
C3322      C3323   1.397       .  A
C3322      H3335   1.076       .  S
C3323      C3324   1.403       .  A
C3323      H3336   1.084       .  S
C3324      C3327   1.491       .  S
C3324      C3325   1.406       .  A
C3325      C3326   1.404       .  A
C3325      H3337   1.081       .  S
C3326      H3338   1.083       .  S
C3327      H3339   1.086       .  S
C3327      C3328   1.351       .  D
C3328      H3340   1.084       .  S
C3328      C3329   1.492       .  S
C3329      C3330   1.406       .  A
C3329      C3334   1.406       .  A
C3330      C3331   1.406       .  A
C3330      H3341   1.083       .  S
C3331      C3332   1.405       .  A
C3331      H3342   1.080       .  S
C3332      C3333   1.406       .  A
C3333      C3334   1.395       .  A
C3333      H3343   1.083       .  S
C3334      H3344   1.082       .  S
C3345      C3346   1.404       .  A
C3345      C3350   1.405       .  A
C3346      C3347   1.398       .  A
C3346      H3359   1.083       .  S
C3347      C3348   1.406       .  A
C3347      H3360   1.083       .  S
C3348      C3351   1.490       .  S
C3348      C3349   1.408       .  A
C3349      C3350   1.399       .  A
C3349      H3361   1.080       .  S
C3350      H3362   1.083       .  S
C3351      H3363   1.084       .  S
C3351      C3352   1.351       .  D
C3352      H3364   1.084       .  S
C3352      C3353   1.491       .  S
C3353      C3354   1.406       .  A
C3353      C3358   1.407       .  A
C3354      C3355   1.402       .  A
C3354      H3365   1.083       .  S
C3355      C3356   1.406       .  A
C3355      H3366   1.083       .  S
C3356      C3357   1.406       .  A
C3357      C3358   1.396       .  A
C3357      H3367   1.083       .  S
C3358      H3368   1.081       .  S
C3369      C3370   1.406       .  A
C3369      C3374   1.408       .  A
C3370      C3371   1.400       .  A
C3370      H3383   1.083       .  S
C3371      C3372   1.405       .  A
C3371      H3384   1.083       .  S
C3372      C3375   1.492       .  S
C3372      C3373   1.408       .  A
C3373      C3374   1.402       .  A
C3373      H3385   1.081       .  S
C3374      H3386   1.083       .  S
C3375      H3387   1.085       .  S
C3375      C3376   1.351       .  D
C3376      H3388   1.085       .  S
C3376      C3377   1.494       .  S
C3377      C3378   1.407       .  A
C3377      C3382   1.408       .  A
C3378      C3379   1.403       .  A
C3378      H3389   1.083       .  S
C3379      C3380   1.405       .  A
C3379      H3390   1.083       .  S
C3380      C3381   1.406       .  A
C3381      C3382   1.398       .  A
C3381      H3391   1.083       .  S
C3382      H3392   1.081       .  S
C3393      C3394   1.411       .  A
C3393      C3398   1.410       .  A
C3394      C3395   1.400       .  A
C3394      H3407   1.083       .  S
C3395      C3396   1.401       .  A
C3395      H3408   1.083       .  S
C3396      C3399   1.493       .  S
C3396      C3397   1.408       .  A
C3397      C3398   1.403       .  A
C3397      H3409   1.082       .  S
C3398      H3410   1.077       .  S
C3399      H3411   1.085       .  S
C3399      C3400   1.347       .  D
C3400      H3412   1.086       .  S
C3400      C3401   1.492       .  S
C3401      C3402   1.403       .  A
C3401      C3406   1.412       .  A
C3402      C3403   1.395       .  A
C3402      H3413   1.083       .  S
C3403      C3404   1.403       .  A
C3403      H3414   1.084       .  S
C3404      C3405   1.404       .  A
C3405      C3406   1.408       .  A
C3405      H3415   1.083       .  S
C3406      H3416   1.082       .  S
C3417      C3418   1.406       .  A
C3417      C3422   1.406       .  A
C3418      C3419   1.399       .  A
C3418      H3431   1.083       .  S
C3419      C3420   1.404       .  A
C3419      H3432   1.083       .  S
C3420      C3423   1.490       .  S
C3420      C3421   1.408       .  A
C3421      C3422   1.399       .  A
C3421      H3433   1.081       .  S
C3422      H3434   1.083       .  S
C3423      H3435   1.085       .  S
C3423      C3424   1.348       .  D
C3424      H3436   1.085       .  S
C3424      C3425   1.488       .  S
C3425      C3426   1.403       .  A
C3425      C3430   1.409       .  A
C3426      C3427   1.396       .  A
C3426      H3437   1.083       .  S
C3427      C3428   1.404       .  A
C3427      H3438   1.083       .  S
C3428      C3429   1.406       .  A
C3429      C3430   1.401       .  A
C3429      H3439   1.083       .  S
C3430      H3440   1.081       .  S
C3441      C3442   1.405       .  A
C3441      C3446   1.403       .  A
C3442      C3443   1.399       .  A
C3442      H3455   1.083       .  S
C3443      C3444   1.404       .  A
C3443      H3456   1.083       .  S
C3444      C3447   1.483       .  S
C3444      C3445   1.406       .  A
C3445      C3446   1.394       .  A
C3445      H3457   1.082       .  S
C3446      H3458   1.083       .  S
C3447      H3459   1.086       .  S
C3447      C3448   1.346       .  D
C3448      H3460   1.086       .  S
C3448      C3449   1.482       .  S
C3449      C3450   1.402       .  A
C3449      C3454   1.407       .  A
C3450      C3451   1.396       .  A
C3450      H3461   1.083       .  S
C3451      C3452   1.406       .  A
C3451      H3462   1.083       .  S
C3452      C3453   1.406       .  A
C3453      C3454   1.397       .  A
C3453      H3463   1.083       .  S
C3454      H3464   1.082       .  S
C3465      C3466   1.404       .  A
C3465      C3470   1.405       .  A
C3466      C3467   1.397       .  A
C3466      H3479   1.082       .  S
C3467      C3468   1.404       .  A
C3467      H3480   1.083       .  S
C3468      C3471   1.487       .  S
C3468      C3469   1.408       .  A
C3469      C3470   1.398       .  A
C3469      H3481   1.081       .  S
C3470      H3482   1.082       .  S
C3471      H3483   1.085       .  S
C3471      C3472   1.348       .  D
C3472      H3484   1.084       .  S
C3472      C3473   1.488       .  S
C3473      C3474   1.404       .  A
C3473      C3478   1.408       .  A
C3474      C3475   1.399       .  A
C3474      H3485   1.083       .  S
C3475      C3476   1.406       .  A
C3475      H3486   1.083       .  S
C3476      C3477   1.405       .  A
C3477      C3478   1.397       .  A
C3477      H3487   1.083       .  S
C3478      H3488   1.081       .  S
C3489      C3490   1.406       .  A
C3489      C3494   1.406       .  A
C3490      C3491   1.399       .  A
C3490      H3503   1.083       .  S
C3491      C3492   1.404       .  A
C3491      H3504   1.083       .  S
C3492      C3495   1.491       .  S
C3492      C3493   1.409       .  A
C3493      C3494   1.398       .  A
C3493      H3505   1.081       .  S
C3494      H3506   1.083       .  S
C3495      H3507   1.084       .  S
C3495      C3496   1.349       .  D
C3496      H3508   1.084       .  S
C3496      C3497   1.492       .  S
C3497      C3498   1.404       .  A
C3497      C3502   1.410       .  A
C3498      C3499   1.397       .  A
C3498      H3509   1.083       .  S
C3499      C3500   1.405       .  A
C3499      H3510   1.082       .  S
C3500      C3501   1.405       .  A
C3501      C3502   1.401       .  A
C3501      H3511   1.082       .  S
C3502      H3512   1.080       .  S
C3513      C3514   1.405       .  A
C3513      C3518   1.404       .  A
C3514      C3515   1.399       .  A
C3514      H3527   1.083       .  S
C3515      C3516   1.404       .  A
C3515      H3528   1.083       .  S
C3516      C3519   1.489       .  S
C3516      C3517   1.408       .  A
C3517      C3518   1.398       .  A
C3517      H3529   1.081       .  S
C3518      H3530   1.083       .  S
C3519      H3531   1.085       .  S
C3519      C3520   1.348       .  D
C3520      H3532   1.085       .  S
C3520      C3521   1.486       .  S
C3521      C3522   1.402       .  A
C3521      C3526   1.408       .  A
C3522      C3523   1.396       .  A
C3522      H3533   1.083       .  S
C3523      C3524   1.406       .  A
C3523      H3534   1.083       .  S
C3524      C3525   1.407       .  A
C3525      C3526   1.401       .  A
C3525      H3535   1.083       .  S
C3526      H3536   1.082       .  S
C3537      C3538   1.403       .  A
C3537      C3542   1.404       .  A
C3538      C3539   1.397       .  A
C3538      H3551   1.083       .  S
C3539      C3540   1.404       .  A
C3539      H3552   1.083       .  S
C3540      C3543   1.487       .  S
C3540      C3541   1.408       .  A
C3541      C3542   1.398       .  A
C3541      H3553   1.081       .  S
C3542      H3554   1.083       .  S
C3543      H3555   1.085       .  S
C3543      C3544   1.347       .  D
C3544      H3556   1.085       .  S
C3544      C3545   1.486       .  S
C3545      C3546   1.403       .  A
C3545      C3550   1.407       .  A
C3546      C3547   1.398       .  A
C3546      H3557   1.083       .  S
C3547      C3548   1.406       .  A
C3547      H3558   1.083       .  S
C3548      C3549   1.407       .  A
C3549      C3550   1.399       .  A
C3549      H3559   1.083       .  S
C3550      H3560   1.082       .  S
C3561      C3562   1.408       .  A
C3561      C3566   1.410       .  A
C3562      C3563   1.396       .  A
C3562      H3575   1.083       .  S
C3563      C3564   1.402       .  A
C3563      H3576   1.083       .  S
C3564      C3567   1.487       .  S
C3564      C3565   1.406       .  A
C3565      C3566   1.399       .  A
C3565      H3577   1.081       .  S
C3566      H3578   1.077       .  S
C3567      H3579   1.086       .  S
C3567      C3568   1.347       .  D
C3568      H3580   1.085       .  S
C3568      C3569   1.485       .  S
C3569      C3570   1.401       .  A
C3569      C3574   1.405       .  A
C3570      C3571   1.398       .  A
C3570      H3581   1.083       .  S
C3571      C3572   1.410       .  A
C3571      H3582   1.083       .  S
C3572      C3573   1.410       .  A
C3573      C3574   1.397       .  A
C3573      H3583   1.076       .  S
C3574      H3584   1.082       .  S
C3585      C3586   1.406       .  A
C3585      C3590   1.405       .  A
C3586      C3587   1.396       .  A
C3586      H3599   1.083       .  S
C3587      C3588   1.402       .  A
C3587      H3600   1.083       .  S
C3588      C3591   1.487       .  S
C3588      C3589   1.409       .  A
C3589      C3590   1.400       .  A
C3589      H3601   1.081       .  S
C3590      H3602   1.083       .  S
C3591      H3603   1.084       .  S
C3591      C3592   1.346       .  D
C3592      H3604   1.085       .  S
C3592      C3593   1.487       .  S
C3593      C3594   1.401       .  A
C3593      C3598   1.408       .  A
C3594      C3595   1.395       .  A
C3594      H3605   1.084       .  S
C3595      C3596   1.406       .  A
C3595      H3606   1.077       .  S
C3596      C3597   1.408       .  A
C3597      C3598   1.400       .  A
C3597      H3607   1.082       .  S
C3598      H3608   1.081       .  S
C3609      C3610   1.403       .  A
C3609      C3614   1.399       .  A
C3610      C3611   1.400       .  A
C3610      H3623   1.083       .  S
C3611      C3612   1.405       .  A
C3611      H3624   1.083       .  S
C3612      C3615   1.483       .  S
C3612      C3613   1.407       .  A
C3613      C3614   1.393       .  A
C3613      H3625   1.082       .  S
C3614      H3626   1.079       .  S
C3615      H3627   1.085       .  S
C3615      C3616   1.347       .  D
C3616      H3628   1.085       .  S
C3616      C3617   1.483       .  S
C3617      C3618   1.404       .  A
C3617      C3622   1.407       .  A
C3618      C3619   1.396       .  A
C3618      H3629   1.083       .  S
C3619      C3620   1.404       .  A
C3619      H3630   1.083       .  S
C3620      C3621   1.406       .  A
C3621      C3622   1.396       .  A
C3621      H3631   1.083       .  S
C3622      H3632   1.081       .  S
C3633      C3634   1.407       .  A
C3633      C3638   1.406   1_465  A
C3634      C3635   1.399       .  A
C3634      H3647   1.083       .  S
C3635      C3636   1.403       .  A
C3635      H3648   1.083       .  S
C3636      C3639   1.486       .  S
C3636      C3637   1.407   1_465  A
C3637      C3638   1.397       .  A
C3637      H3649   1.082       .  S
C3638      H3650   1.083       .  S
C3639      H3651   1.086       .  S
C3639      C3640   1.345   1_455  D
C3640      H3652   1.086   1_565  S
C3640      C3641   1.482   1_655  S
C3641      C3642   1.399   1_455  A
C3641      C3646   1.407   1_565  A
C3642      C3643   1.394       .  A
C3642      H3653   1.084       .  S
C3643      C3644   1.407   1_655  A
C3643      H3654   1.078       .  S
C3644      C3645   1.408   1_565  A
C3645      C3646   1.402       .  A
C3645      H3655   1.082       .  S
C3646      H3656   1.082       .  S
C3657      C3658   1.402   1_545  A
C3657      C3662   1.400       .  A
C3658      C3659   1.401       .  A
C3658      H3671   1.083       .  S
C3659      C3660   1.406   1_565  A
C3659      H3672   1.083       .  S
C3660      C3663   1.484       .  S
C3660      C3661   1.406       .  A
C3661      C3662   1.394       .  A
C3661      H3673   1.082       .  S
C3662      H3674   1.080       .  S
C3663      H3675   1.086       .  S
C3663      C3664   1.347   1_545  D
C3664      H3676   1.086       .  S
C3664      C3665   1.483       .  S
C3665      C3666   1.403       .  A
C3665      C3670   1.406   1_565  A
C3666      C3667   1.398       .  A
C3666      H3677   1.083       .  S
C3667      C3668   1.405       .  A
C3667      H3678   1.083       .  S
C3668      C3669   1.407   1_565  A
C3669      C3670   1.398       .  A
C3669      H3679   1.083       .  S
C3670      H3680   1.082       .  S
C3681      C3682   1.405   1_455  A
C3681      C3686   1.405       .  A
C3682      C3683   1.395       .  A
C3682      H3695   1.083       .  S
C3683      C3684   1.402   1_655  A
C3683      H3696   1.083       .  S
C3684      C3687   1.488       .  S
C3684      C3685   1.410       .  A
C3685      C3686   1.402       .  A
C3685      H3697   1.081       .  S
C3686      H3698   1.083       .  S
C3687      H3699   1.085   1_455  S
C3687      C3688   1.346       .  D
C3688      H3700   1.085       .  S
C3688      C3689   1.489       .  S
C3689      C3690   1.402       .  A
C3689      C3694   1.410       .  A
C3690      C3691   1.396       .  A
C3690      H3701   1.084       .  S
C3691      C3692   1.408       .  A
C3691      H3702   1.083       .  S
C3692      C3693   1.406   1_455  A
C3693      C3694   1.402   1_655  A
C3693      H3703   1.083       .  S
C3694      H3704   1.081   1_455  S
C3705      C3706   1.408       .  A
C3705      C3710   1.410       .  A
C3706      C3707   1.405       .  A
C3706      H3719   1.081       .  S
C3707      C3708   1.405       .  A
C3707      H3720   1.083       .  S
C3708      C3711   1.490       .  S
C3708      C3709   1.404       .  A
C3709      C3710   1.397       .  A
C3709      H3721   1.082       .  S
C3710      H3722   1.081       .  S
C3711      H3723   1.086       .  S
C3711      C3712   1.350       .  D
C3712      H3724   1.086       .  S
C3712      C3713   1.490       .  S
C3713      C3714   1.403       .  A
C3713      C3718   1.405       .  A
C3714      C3715   1.400       .  A
C3714      H3725   1.083       .  S
C3715      C3716   1.409       .  A
C3715      H3726   1.083       .  S
C3716      C3717   1.412       .  A
C3717      C3718   1.401       .  A
C3717      H3727   1.079       .  S
C3718      H3728   1.082       .  S
C3729      C3730   1.407       .  A
C3729      C3734   1.404       .  A
C3730      C3731   1.400       .  A
C3730      H3743   1.082       .  S
C3731      C3732   1.404       .  A
C3731      H3744   1.083       .  S
C3732      C3735   1.491       .  S
C3732      C3733   1.408       .  A
C3733      C3734   1.399       .  A
C3733      H3745   1.081       .  S
C3734      H3746   1.079       .  S
C3735      H3747   1.084       .  S
C3735      C3736   1.349       .  D
C3736      H3748   1.085       .  S
C3736      C3737   1.491       .  S
C3737      C3738   1.404       .  A
C3737      C3742   1.409       .  A
C3738      C3739   1.398       .  A
C3738      H3749   1.083       .  S
C3739      C3740   1.405       .  A
C3739      H3750   1.083       .  S
C3740      C3741   1.407       .  A
C3741      C3742   1.402       .  A
C3741      H3751   1.083       .  S
C3742      H3752   1.081       .  S
C3753      C3754   1.405       .  A
C3753      C3758   1.404       .  A
C3754      C3755   1.400       .  A
C3754      H3767   1.083       .  S
C3755      C3756   1.404       .  A
C3755      H3768   1.083       .  S
C3756      C3759   1.491       .  S
C3756      C3757   1.409       .  A
C3757      C3758   1.398       .  A
C3757      H3769   1.081       .  S
C3758      H3770   1.083       .  S
C3759      H3771   1.084       .  S
C3759      C3760   1.348       .  D
C3760      H3772   1.085       .  S
C3760      C3761   1.490       .  S
C3761      C3762   1.402       .  A
C3761      C3766   1.410       .  A
C3762      C3763   1.394       .  A
C3762      H3773   1.084       .  S
C3763      C3764   1.406       .  A
C3763      H3774   1.083       .  S
C3764      C3765   1.407       .  A
C3765      C3766   1.404       .  A
C3765      H3775   1.083       .  S
C3766      H3776   1.081       .  S
C3777      C3778   1.406       .  A
C3777      C3782   1.403       .  A
C3778      C3779   1.399       .  A
C3778      H3791   1.083       .  S
C3779      C3780   1.404       .  A
C3779      H3792   1.083       .  S
C3780      C3783   1.489       .  S
C3780      C3781   1.408       .  A
C3781      C3782   1.399       .  A
C3781      H3793   1.081       .  S
C3782      H3794   1.079       .  S
C3783      H3795   1.085       .  S
C3783      C3784   1.348       .  D
C3784      H3796   1.085       .  S
C3784      C3785   1.489       .  S
C3785      C3786   1.404       .  A
C3785      C3790   1.408       .  A
C3786      C3787   1.398       .  A
C3786      H3797   1.083       .  S
C3787      C3788   1.405       .  A
C3787      H3798   1.083       .  S
C3788      C3789   1.408       .  A
C3789      C3790   1.400       .  A
C3789      H3799   1.083       .  S
C3790      H3800   1.081       .  S
C3801      C3802   1.410       .  A
C3801      C3806   1.411       .  A
C3802      C3803   1.398       .  A
C3802      H3815   1.076       .  S
C3803      C3804   1.402       .  A
C3803      H3816   1.084       .  S
C3804      C3807   1.492       .  S
C3804      C3805   1.407       .  A
C3805      C3806   1.402       .  A
C3805      H3817   1.081       .  S
C3806      H3818   1.083       .  S
C3807      H3819   1.084       .  S
C3807      C3808   1.351       .  D
C3808      H3820   1.085       .  S
C3808      C3809   1.495       .  S
C3809      C3810   1.403       .  A
C3809      C3814   1.408       .  A
C3810      C3811   1.401       .  A
C3810      H3821   1.083       .  S
C3811      C3812   1.410       .  A
C3811      H3822   1.083       .  S
C3812      C3813   1.411       .  A
C3813      C3814   1.399       .  A
C3813      H3823   1.076       .  S
C3814      H3824   1.080       .  S
C3825      C3826   1.406   1_565  A
C3825      C3830   1.406       .  A
C3826      C3827   1.397       .  A
C3826      H3839   1.083       .  S
C3827      C3828   1.402       .  A
C3827      H3840   1.083       .  S
C3828      C3831   1.479       .  S
C3828      C3829   1.405   1_545  A
C3829      C3830   1.395       .  A
C3829      H3841   1.082   1_556  S
C3830      H3842   1.083   1_556  S
C3831      H3843   1.086       .  S
C3831      C3832   1.346       .  D
C3832      H3844   1.086   1_556  S
C3832      C3833   1.481       .  S
C3833      C3834   1.402   1_556  A
C3833      C3838   1.402   1_545  A
C3834      C3835   1.399       .  A
C3834      H3845   1.083       .  S
C3835      C3836   1.410   1_554  A
C3835      H3846   1.081       .  S
C3836      C3837   1.407   1_545  A
C3837      C3838   1.392       .  A
C3837      H3847   1.075       .  S
C3838      H3848   1.082       .  S
C3849      C3850   1.404       .  A
C3849      C3854   1.401       .  A
C3850      C3851   1.400       .  A
C3850      H3863   1.083       .  S
C3851      C3852   1.404       .  A
C3851      H3864   1.083       .  S
C3852      C3855   1.482       .  S
C3852      C3853   1.405       .  A
C3853      C3854   1.392       .  A
C3853      H3865   1.082       .  S
C3854      H3866   1.077       .  S
C3855      H3867   1.085       .  S
C3855      C3856   1.347   1_545  D
C3856      H3868   1.086       .  S
C3856      C3857   1.481       .  S
C3857      C3858   1.404       .  A
C3857      C3862   1.405   1_565  A
C3858      C3859   1.398       .  A
C3858      H3869   1.083       .  S
C3859      C3860   1.405       .  A
C3859      H3870   1.083       .  S
C3860      C3861   1.406   1_565  A
C3861      C3862   1.394       .  A
C3861      H3871   1.083       .  S
C3862      H3872   1.082       .  S
C3873      C3874   1.407       .  A
C3873      C3878   1.405   1_554  A
C3874      C3875   1.395       .  A
C3874      H3887   1.083       .  S
C3875      C3876   1.401       .  A
C3875      H3888   1.084       .  S
C3876      C3879   1.486       .  S
C3876      C3877   1.410   1_554  A
C3877      C3878   1.400       .  A
C3877      H3889   1.081       .  S
C3878      H3890   1.083       .  S
C3879      H3891   1.084       .  S
C3879      C3880   1.346   1_554  D
C3880      H3892   1.085       .  S
C3880      C3881   1.487       .  S
C3881      C3882   1.402       .  A
C3881      C3886   1.410   1_556  A
C3882      C3883   1.395       .  A
C3882      H3893   1.083       .  S
C3883      C3884   1.404       .  A
C3883      H3894   1.083       .  S
C3884      C3885   1.404   1_556  A
C3885      C3886   1.399       .  A
C3885      H3895   1.083       .  S
C3886      H3896   1.080       .  S
C3897      C3898   1.409       .  A
C3897      C3902   1.410       .  A
C3898      C3899   1.396       .  A
C3898      H3911   1.083       .  S
C3899      C3900   1.401       .  A
C3899      H3912   1.083       .  S
C3900      C3903   1.486       .  S
C3900      C3901   1.406       .  A
C3901      C3902   1.399       .  A
C3901      H3913   1.082       .  S
C3902      H3914   1.077   1_554  S
C3903      H3915   1.085       .  S
C3903      C3904   1.348       .  D
C3904      H3916   1.085       .  S
C3904      C3905   1.487       .  S
C3905      C3906   1.401       .  A
C3905      C3910   1.406       .  A
C3906      C3907   1.398       .  A
C3906      H3917   1.083       .  S
C3907      C3908   1.409       .  A
C3907      H3918   1.083       .  S
C3908      C3909   1.411       .  A
C3909      C3910   1.398       .  A
C3909      H3919   1.077       .  S
C3910      H3920   1.081       .  S
