geometry optimzed in LAMMPS
_audit_creation_date              2020-11-30 
_audit_creation_method            'lammps2cif' 
_symmetry_space_group_name_H-M    'P1' 
_symmetry_Int_Tables_number       1 
_symmetry_cell_setting            triclinic 
loop_ 
_symmetry_equiv_pos_as_xyz 
  x,y,z 
_cell_length_a                    26.37359219 
_cell_length_b                    43.111760702167366 
_cell_length_c                    42.80866368768169 
_cell_angle_alpha                 89.3697787843125 
_cell_angle_beta                  89.95518629729932 
_cell_angle_gamma                 89.83170331615156 
loop_ 
_atom_site_label 
_atom_site_type_symbol 
_atom_site_fract_x 
_atom_site_fract_y 
_atom_site_fract_z 
_atom_site_charge 
O1          O  0.76487479  0.32152034  0.18994192    -0.85600
O2          O  0.72378802  0.37044735  0.22193950    -0.82600
C3          C  0.69283508  0.38681989  0.23706902     0.97900
O4          O  0.65847662  0.37468062  0.25382620    -0.82600
O5          O  0.58931979  0.35092617  0.21250618    -0.85300
C6          C  0.57765126  0.33609188  0.18832088     1.02400
O7          O  0.59565964  0.30946234  0.18360653    -0.78000
O8          O  0.69367979  0.31752240  0.16462485    -0.78200
C9          C  0.74032553  0.32377994  0.16476965     1.02400
O10         O  0.75701305  0.28434550  0.24601782    -0.85600
O11         O  0.73087272  0.33685310  0.27859602    -0.82600
C12         C  0.69858833  0.32877054  0.29872747     0.97900
O13         O  0.65558916  0.31879489  0.29045452    -0.82600
O14         O  0.58038584  0.29486352  0.25048556    -0.85300
C15         C  0.58694223  0.26711155  0.24153475     1.02400
O16         O  0.62459814  0.26034602  0.22459812    -0.78100
O17         O  0.72349884  0.26516965  0.20338583    -0.78200
C18         C  0.75008269  0.26199900  0.22780484     1.02400
Cr19       Cr  0.73878250  0.32724850  0.23361065     1.93700
Cr20       Cr  0.62484472  0.33315307  0.24996826     1.93200
Cr21       Cr  0.66073346  0.29029012  0.19662444     1.39100
O22         O  0.67439443  0.31657426  0.22707505    -1.23300
O23         O  0.25783950  0.31345390  0.09171032    -0.85600
O24         O  0.28382764  0.36421053  0.05688986    -0.82600
C25         C  0.30839306  0.38268422  0.03987491     0.97900
O26         O  0.34774139  0.37406856  0.02530260    -0.82600
O27         O  0.42399733  0.35545464  0.06638470    -0.85300
C28         C  0.44095986  0.34061831  0.08978367     1.02400
O29         O  0.42787725  0.31309102  0.09495619    -0.78000
O30         O  0.32990350  0.31754627  0.11569298    -0.78200
C31         C  0.28245191  0.32153639  0.11545766     1.02400
O32         O  0.27058333  0.27637598  0.03694593    -0.85600
O33         O  0.28308092  0.32927037  0.00180950    -0.82600
C34         C  0.31053314  0.32342942  0.48039659     0.97900
O35         O  0.36169463  0.31929935  0.98935384    -0.82600
O36         O  0.44107105  0.30028935  0.02826709    -0.85300
C37         C  0.43778435  0.27192901  0.03640434     1.02400
O38         O  0.40438150  0.26334138  0.05591008    -0.78100
O39         O  0.30709124  0.26117131  0.08049662    -0.78200
C40         C  0.28007894  0.25550170  0.05681954     1.02400
Cr41       Cr  0.27939026  0.32028393  0.04728274     1.93700
Cr42       Cr  0.39030828  0.33555505  0.02943970     1.93200
Cr43       Cr  0.36539685  0.29069818  0.08437115     1.39100
O44         O  0.34556662  0.31525675  0.05321635    -1.23300
O45         O  0.25937782  0.37341933  0.33754379    -0.85600
O46         O  0.22527807  0.32638702  0.30111721    -0.82600
C47         C  0.19396524  0.30999776  0.28651249     0.97900
O48         O  0.15647527  0.32176129  0.27232806    -0.82600
O49         O  0.08933076  0.34445333  0.31544329    -0.85300
C50         C  0.07524026  0.36045325  0.33834585     1.02400
O51         O  0.08975197  0.38792341  0.34082774    -0.78000
O52         O  0.18683422  0.37508621  0.36181724    -0.78200
C53         C  0.23341667  0.36778449  0.36167969     1.02400
O54         O  0.25356381  0.41481057  0.28426402    -0.85600
O55         O  0.23011239  0.36473415  0.24733000    -0.82600
C56         C  0.19593227  0.37072220  0.22761944     0.97900
O57         O  0.15128942  0.37749915  0.23630394    -0.82600
O58         O  0.07832192  0.40134482  0.27797596    -0.85300
C59         C  0.08622574  0.42944130  0.28554369     1.02400
O60         O  0.12462396  0.43600684  0.30197842    -0.78100
O61         O  0.22049647  0.42873599  0.32844782    -0.78200
C62         C  0.24893974  0.43450644  0.30566471     1.02400
Cr63       Cr  0.23673532  0.37074576  0.29295946     1.93700
Cr64       Cr  0.12251954  0.36287043  0.27731101     1.93200
Cr65       Cr  0.15688909  0.40494045  0.33074363     1.39100
O66         O  0.17190327  0.37973941  0.29970828    -1.23300
O67         O  0.75349001  0.37689800  0.43912717    -0.85600
O68         O  0.79014460  0.32642326  0.47172407    -0.82600
C69         C  0.82047238  0.30922148  0.48677663     0.97900
O70         O  0.85758758  0.32029690  0.50178926    -0.82600
O71         O  0.92679405  0.34597073  0.46168219    -0.85300
C72         C  0.93988646  0.36217239  0.43845227     1.02400
O73         O  0.92271188  0.38913351  0.43452170    -0.78000
O74         O  0.82575334  0.37855630  0.41446444    -0.78200
C75         C  0.77900465  0.37255552  0.41464748     1.02400
O76         O  0.76136450  0.41278091  0.49510099    -0.85600
O77         O  0.78704311  0.35876680  0.02528547    -0.82600
C78         C  0.82142563  0.36337511  0.04505268     0.97900
O79         O  0.86418962  0.37349399  0.03616685    -0.82600
O80         O  0.93491069  0.40057298  0.99459351    -0.85300
C81         C  0.92539563  0.42944323  0.49276586     1.02400
O82         O  0.88824263  0.43601402  0.47527585    -0.78100
O83         O  0.79198628  0.43081568  0.45102528    -0.78200
C84         C  0.76522206  0.43445117  0.47523855     1.02400
Cr85       Cr  0.77757706  0.36973354  0.48303670     1.93700
Cr86       Cr  0.89118886  0.36212189  0.49929174     1.93200
Cr87       Cr  0.85595134  0.40646509  0.44623877     1.39100
O88         O  0.84200835  0.37957492  0.47663842    -1.23300
O89         O  0.18306653  0.06021366  0.11197599    -0.85600
O90         O  0.08483671  0.05557531  0.09177008    -0.82600
C91         C  0.06800958  0.08263132  0.08783208     0.97900
O92         O  0.08315549  0.09957234  0.06573386    -0.82600
O93         O  0.15804633  0.12579558  0.03083960    -0.85300
C94         C  0.19433558  0.13344564  0.04868935     1.02400
O95         O  0.22065436  0.11308518  0.06250146    -0.78000
O96         O  0.25488428  0.05853469  0.08769085    -0.78200
C97         C  0.23042964  0.06429196  0.11215173     1.02400
O98         O  0.20971612  0.00939576  0.07005385    -0.85600
O99         O  0.11234479  0.01037546  0.04751766    -0.82600
C100        C  0.07631569  0.01962905  0.03029978     0.97900
O101        O  0.07260182  0.04826297  0.02259473    -0.82600
O102        O  0.15127262  0.07590452  0.98662242    -0.85300
C103        C  0.19885313  0.08670078  0.47998886     1.02400
O104        O  0.22686014  0.08890547  0.00190152    -0.78100
O105        O  0.24425287  0.03025978  0.02800648    -0.78200
C106        C  0.23602259  0.00695911  0.04537356     1.02400
Cr107      Cr  0.14904105  0.03598090  0.07824898     1.93700
Cr108      Cr  0.11975183  0.08532959  0.02806948     1.93200
Cr109      Cr  0.23146620  0.07193613  0.04511956     1.39100
O110        O  0.16601540  0.06399341  0.04979928    -1.23300
O111        O  0.82108107  0.06304656  0.16442981    -0.85600
O112        O  0.91894720  0.05573656  0.18555710    -0.82600
C113        C  0.93163681  0.08380755  0.18650918     0.97900
O114        O  0.91775632  0.10059468  0.20881206    -0.82600
O115        O  0.84968992  0.12474934  0.25082349    -0.85300
C116        C  0.81160283  0.13486204  0.23564596     1.02400
O117        O  0.78511518  0.11678860  0.21973362    -0.78000
O118        O  0.74903931  0.06605149  0.18926443    -0.78200
C119        C  0.77421047  0.06928458  0.16429260     1.02400
O120        O  0.79103825  0.01189234  0.20436928    -0.85600
O121        O  0.88879295  0.00919204  0.22886771    -0.82600
C122        C  0.92707091  0.01724148  0.24467512     0.97900
O123        O  0.93440681  0.04607002  0.24957622    -0.82600
O124        O  0.86004693  0.07053283  0.28967735    -0.85300
C125        C  0.81722518  0.08076897  0.29799567     1.02400
O126        O  0.78271717  0.08520862  0.27795285    -0.78100
O127        O  0.75840229  0.03142037  0.24697240    -0.78200
C128        C  0.76254236  0.00948076  0.22804224     1.02400
Cr129      Cr  0.85365048  0.03700551  0.19804001     1.93700
Cr130      Cr  0.88710136  0.08372565  0.24797749     1.93200
Cr131      Cr  0.77388653  0.07389832  0.23316065     1.39100
O132        O  0.83843173  0.06452973  0.22690650    -1.23300
O133        O  0.31741590  0.13448762  0.35741693    -0.85600
O134        O  0.41600571  0.13963127  0.34053588    -0.82600
C135        C  0.43464071  0.11302297  0.33710373     0.97900
O136        O  0.42376763  0.09688186  0.31361482    -0.82600
O137        O  0.35399436  0.07031973  0.27437913    -0.85300
C138        C  0.31851661  0.06019790  0.29161606     1.02400
O139        O  0.28813395  0.07854500  0.30468364    -0.78000
O140        O  0.24686037  0.12971787  0.33220218    -0.78200
C141        C  0.27101956  0.12769615  0.35740301     1.02400
O142        O  0.29208349  0.18498723  0.31521325    -0.85600
O143        O  0.39253192  0.18626939  0.29580852    -0.82600
C144        C  0.43015462  0.17768067  0.27968518     0.97900
O145        O  0.43458044  0.14950073  0.27158358    -0.82600
O146        O  0.35900638  0.12307353  0.23276580    -0.85300
C147        C  0.31512172  0.11392182  0.22513168     1.02400
O148        O  0.28278418  0.10769167  0.24579320    -0.78100
O149        O  0.25773277  0.16271897  0.27428370    -0.78200
C150        C  0.26415916  0.18609283  0.29123667     1.02400
Cr151      Cr  0.35301626  0.15904847  0.32470601     1.93700
Cr152      Cr  0.38872980  0.11187537  0.27474788     1.93200
Cr153      Cr  0.27465788  0.12070028  0.28964264     1.39100
O154        O  0.33932066  0.13100225  0.29586865    -1.23300
O155        O  0.69900403  0.13714107  0.41286510    -0.85600
O156        O  0.59980257  0.13985780  0.42804018    -0.82600
C157        C  0.58126831  0.11320681  0.43210522     0.97900
O158        O  0.59089857  0.09735873  0.45638833    -0.82600
O159        O  0.65968054  0.07046073  0.49667209    -0.85300
C160        C  0.69509789  0.06009792  0.47967799     1.02400
O161        O  0.72574501  0.07811713  0.46613217    -0.78000
O162        O  0.76782090  0.13032476  0.43990218    -0.78200
C163        C  0.74507657  0.12979563  0.41419889     1.02400
O164        O  0.72061407  0.18601974  0.45674783    -0.85600
O165        O  0.61935569  0.18633761  0.47360292    -0.82600
C166        C  0.58332569  0.17756850  0.49106367     0.97900
O167        O  0.57661937  0.14999806  0.99748109    -0.82600
O168        O  0.65125200  0.12299693  0.03665687    -0.85300
C169        C  0.69467637  0.11331498  0.04511559     1.02400
O170        O  0.72763371  0.10696208  0.02480331    -0.78100
O171        O  0.75499154  0.16176614  0.49725256    -0.78200
C172        C  0.74843722  0.18591770  0.48084329     1.02400
Cr173      Cr  0.66103020  0.15995661  0.44539589     1.93700
Cr174      Cr  0.62451221  0.11187023  0.49542581     1.93200
Cr175      Cr  0.73846976  0.12016405  0.48167015     1.39100
O176        O  0.67415444  0.13110536  0.47444956    -1.23300
C177        C  0.52163490  0.09844194  0.35341386    -0.06000
C178        C  0.47047925  0.10193041  0.36135779    -0.00100
C179        C  0.45621129  0.10090560  0.39331202    -0.08600
C180        C  0.49410288  0.10150431  0.41632852    -0.06000
C181        C  0.54548085  0.10179864  0.40830492    -0.00100
C182        C  0.55958009  0.09779329  0.37652394    -0.08500
C183        C  0.61368176  0.09295003  0.36573805     0.61800
H184        H  0.53238493  0.09817553  0.32896302     0.12500
H185        H  0.48356634  0.10432124  0.44062123     0.12500
C186        C  0.40139958  0.10271290  0.40344800     0.62100
F187        F  0.61656767  0.06570669  0.34903546    -0.23100
F188        F  0.64725135  0.09051494  0.39025787    -0.20400
F189        F  0.62829327  0.11737092  0.34658467    -0.20100
F190        F  0.37077973  0.08663528  0.38302091    -0.20200
F191        F  0.38681356  0.13348607  0.40434237    -0.20500
F192        F  0.39486437  0.08973309  0.43288667    -0.23200
C193        C  0.79581310  0.09030481  0.38584451    -0.06000
C194        C  0.77204147  0.11957279  0.38574059    -0.00100
C195        C  0.77182448  0.13757657  0.35803796    -0.08600
C196        C  0.79001898  0.12419117  0.33048697    -0.06000
C197        C  0.80819746  0.09349672  0.32964074    -0.00100
C198        C  0.81307914  0.07649399  0.35797538    -0.08500
C199        C  0.83328627  0.04356515  0.35848732     0.61800
H200        H  0.79818623  0.07740344  0.40806406     0.12500
H201        H  0.78856646  0.13753766  0.30877805     0.12500
C202        C  0.75326214  0.17094089  0.35774278     0.62100
F203        F  0.83368815  0.03096848  0.38840382    -0.23100
F204        F  0.88234386  0.04304803  0.34711683    -0.20400
F205        F  0.80298373  0.02517868  0.34008475    -0.20100
F206        F  0.77525383  0.18690095  0.38210102    -0.20200
F207        F  0.70114513  0.17170379  0.36098067    -0.20500
F208        F  0.76583013  0.18612958  0.33016201    -0.23200
C209        C  0.76587341  0.10978443  0.12275211    -0.06000
C210        C  0.74901247  0.08139367  0.13522852    -0.00100
C211        C  0.70890273  0.06573858  0.11992680    -0.08600
C212        C  0.68919479  0.07822058  0.09163025    -0.06000
C213        C  0.70753305  0.10604977  0.07849122    -0.00100
C214        C  0.74540997  0.12259521  0.09491720    -0.08500
C215        C  0.76384682  0.15389065  0.08323057     0.61800
H216        H  0.79565798  0.12183900  0.13500312     0.12500
H217        H  0.66086371  0.06555884  0.07874195     0.12500
C218        C  0.68886686  0.03517615  0.13259461     0.62100
F219        F  0.79640244  0.16766615  0.10429101    -0.20700
F220        F  0.72281211  0.17349078  0.07880392    -0.20400
F221        F  0.78943470  0.15047975  0.05533608    -0.20100
F222        F  0.66748408  0.03955237  0.16172186    -0.20200
F223        F  0.72825328  0.01406269  0.13503480    -0.20500
F224        F  0.65215575  0.02272549  0.11336440    -0.23200
C225        C  0.23270359  0.10336101  0.15390982    -0.06000
C226        C  0.25649879  0.07807782  0.13961912    -0.00100
C227        C  0.30469961  0.06807651  0.15088534    -0.08600
C228        C  0.32588461  0.08288487  0.17714765    -0.06000
C229        C  0.30040729  0.10695764  0.19246032    -0.00100
C230        C  0.25403124  0.11819540  0.17987179    -0.08500
C231        C  0.22648218  0.14557735  0.19407504     0.61800
H232        H  0.19667426  0.11137629  0.14468250     0.12500
H233        H  0.36101436  0.07441988  0.18719412     0.12500
C234        C  0.33271368  0.04106631  0.13629198     0.62100
F235        F  0.19106402  0.15807073  0.17361276    -0.23100
F236        F  0.26075138  0.16866910  0.20116799    -0.20400
F237        F  0.20152442  0.13625030  0.22095619    -0.20100
F238        F  0.34828994  0.04928992  0.10654736    -0.20200
F239        F  0.30125603  0.01548607  0.13489586    -0.20500
F240        F  0.37538408  0.03267808  0.15325552    -0.23200
C241        C  0.26595244  0.13210417  0.41439200    -0.06000
C242        C  0.24593773  0.11874953  0.38756504    -0.00100
C243        C  0.20555490  0.09703639  0.39094930    -0.08600
C244        C  0.19076432  0.08737124  0.42140459    -0.06000
C245        C  0.21354784  0.09936653  0.44835651    -0.00100
C246        C  0.25014692  0.12361568  0.44452485    -0.08500
C247        C  0.27055910  0.14252062  0.47149558     0.61800
H248        H  0.29445348  0.14991264  0.41145118     0.12500
H249        H  0.16171293  0.06987360  0.42439801     0.12500
C250        C  0.17844817  0.08367496  0.36294424     0.62100
F251        F  0.29857228  0.16791267  0.46151837    -0.23100
F252        F  0.28938906  0.13090985  0.99145777    -0.20400
F253        F  0.21438802  0.15596291  0.98444445    -0.20100
F254        F  0.21251662  0.06800684  0.34444492    -0.20200
F255        F  0.15595412  0.10731482  0.34577248    -0.20500
F256        F  0.14080498  0.06300346  0.37169028    -0.23200
C257        C  0.04705309  0.10343236  0.13935858    -0.06000
C258        C  0.02999950  0.09380951  0.10999062    -0.00100
C259        C  0.97783710  0.08889460  0.10478151    -0.08600
C260        C  0.94485417  0.09014294  0.13041864    -0.06000
C261        C  0.96300036  0.09567749  0.16067027    -0.00100
C262        C  0.01389366  0.10470985  0.16506722    -0.08500
C263        C  0.03337940  0.11380321  0.19696472     0.61800
H264        H  0.08725289  0.10759076  0.14252039     0.12500
H265        H  0.90538557  0.08377574  0.12754736     0.12500
C266        C  0.95800128  0.07965962  0.07295714     0.62100
F267        F  0.08424490  0.12162826  0.19609325    -0.23100
F268        F  0.02740914  0.08946403  0.21795011    -0.20400
F269        F  0.00638031  0.13923347  0.20737343    -0.20100
F270        F  0.97568949  0.05040731  0.06562677    -0.20200
F271        F  0.97443866  0.10066482  0.05052731    -0.20500
F272        F  0.90550291  0.07915064  0.07221295    -0.23200
C273        C  0.72057307  0.47881310  0.45129628    -0.06000
C274        C  0.73801654  0.46420056  0.47879976    -0.00100
C275        C  0.73417654  0.47988930  0.50766047    -0.08600
C276        C  0.71854598  0.01165120  0.50633763    -0.06000
C277        C  0.70442533  0.02660279  0.47850511    -0.00100
C278        C  0.70318399  0.50954711  0.45119352    -0.08500
C279        C  0.68316160  0.52429615  0.42134145     0.61800
H280        H  0.72223807  0.46624582  0.42957416     0.12500
H281        H  0.71797084  0.02486676  0.52773011     0.12500
C282        C  0.75209138  0.46538936  0.53810167     0.62100
F283        F  0.68144172  0.50336891  0.39705776    -0.23100
F284        F  0.71702501  0.04788917  0.41071843    -0.20400
F285        F  0.62798768  0.53604628  0.93255923    -0.20100
F286        F  0.74537802  0.48504312  0.56315696    -0.20200
F287        F  0.80321489  0.45857740  0.53570862    -0.20500
F288        F  0.72388046  0.94146426  0.54453265    -0.23200
C289        C  0.82003588  0.22203671  0.47700357    -0.06000
C290        C  0.77218309  0.21512434  0.48961399    -0.00100
C291        C  0.74343729  0.23849774  0.50437877    -0.08600
C292        C  0.76164973  0.26887628  0.50352946    -0.06000
C293        C  0.80820542  0.27619955  0.48958389    -0.00100
C294        C  0.83894025  0.25254651  0.47696033    -0.08500
C295        C  0.88968033  0.25993760  0.46197713     0.61800
H296        H  0.84102269  0.20373315  0.46556285     0.12500
H297        H  0.73864785  0.28731706  0.51326903     0.12500
C298        C  0.69173261  0.23293338  0.51899169     0.62100
F299        F  0.91262197  0.23372225  0.44995309    -0.23100
F300        F  0.92185481  0.27238173  0.48400067    -0.20400
F301        F  0.88298437  0.28114482  0.43782660    -0.20100
F302        F  0.68278685  0.20189698  0.52501315    -0.20200
F303        F  0.65461222  0.24433136  0.49915363    -0.20500
F304        F  0.68815028  0.24825992  0.54709675    -0.23200
C305        C  0.98217107  0.44984622  0.02875915    -0.06000
C306        C  0.96253322  0.45328373  0.99846400    -0.00100
C307        C  0.97059628  0.48263670  0.48695585    -0.08600
C308        C  0.00811441  0.50326449  0.49817374    -0.06000
C309        C  0.03749539  0.49504294  0.02190771    -0.00100
C310        C  0.01852180  0.47036788  0.04107977    -0.08500
C311        C  0.04104380  0.96627682  0.07224413     0.61800
H312        H  0.96854807  0.43067127  0.04292097     0.12500
H313        H  0.01731748  0.52396302  0.48489460     0.12500
C314        C  0.94299389  0.49077047  0.45678383     0.62100
F315        F  0.01368864  0.94402078  0.08855310    -0.23100
F316        F  0.03776291  0.99357515  0.08880258    -0.20400
F317        F  0.09092515  0.95646823  0.07110297    -0.20100
F318        F  0.89187863  0.49491604  0.46280200    -0.20200
F319        F  0.94944662  0.46727553  0.43538093    -0.20500
F320        F  0.96088099  0.51795402  0.44330491    -0.23200
C321        C  0.29390787  0.47503918  0.27539808    -0.06000
C322        C  0.27562915  0.46467783  0.30449711    -0.00100
C323        C  0.27924839  0.48454881  0.33090941    -0.08600
C324        C  0.29436801  0.01752291  0.32641456    -0.06000
C325        C  0.31032237  0.02667100  0.29654941    -0.00100
C326        C  0.31059228  0.50563909  0.27079778    -0.08500
C327        C  0.32171796  0.51722406  0.23793862     0.61800
H328        H  0.29147524  0.45969579  0.25562957     0.12500
H329        H  0.29577598  0.03447806  0.34488570     0.12500
C330        C  0.25981232  0.47596436  0.36345354     0.62100
F331        F  0.31426557  0.49452203  0.21579256    -0.23100
F332        F  0.38162433  0.02104766  0.24174524    -0.20400
F333        F  0.30335572  0.03728218  0.22747039    -0.20100
F334        F  0.27874534  0.44745857  0.37279062    -0.20200
F335        F  0.20735507  0.47521779  0.36332779    -0.20500
F336        F  0.27112161  0.00337615  0.38655224    -0.23200
C337        C  0.24650171  0.26870750  0.26574480    -0.06000
C338        C  0.20453684  0.27689920  0.28384431    -0.00100
C339        C  0.17797568  0.25416232  0.30123350    -0.08600
C340        C  0.19610907  0.22346814  0.30075746    -0.06000
C341        C  0.23961984  0.21556093  0.28362557    -0.00100
C342        C  0.26472409  0.23827138  0.26523925    -0.08500
C343        C  0.31297228  0.23248654  0.24677242     0.61800
H344        H  0.26657348  0.28665011  0.25278197     0.12500
H345        H  0.17826781  0.20577519  0.31514544     0.12500
C346        C  0.13261524  0.26272171  0.32125638     0.62100
F347        F  0.30753334  0.24459329  0.21689217    -0.23100
F348        F  0.32491003  0.20142615  0.24407819    -0.20400
F349        F  0.35286653  0.24730817  0.26126010    -0.20100
F350        F  0.09414378  0.27411231  0.30240077    -0.20200
F351        F  0.14620910  0.28520609  0.34247495    -0.20500
F352        F  0.11414366  0.23740824  0.33783208    -0.23200
C353        C  0.99888688  0.44329197  0.26764593    -0.06000
C354        C  0.04734581  0.45382187  0.27634156    -0.00100
C355        C  0.05572247  0.48647091  0.27653811    -0.08600
C356        C  0.00929149  0.00396711  0.27209978    -0.06000
C357        C  0.96752983  0.49612501  0.25822562    -0.00100
C358        C  0.95880351  0.46347376  0.25912007    -0.08500
C359        C  0.90727916  0.44938231  0.25209030     0.61800
H360        H  0.99213073  0.41856518  0.26785287     0.12500
H361        H  0.01313634  0.02870046  0.27532348     0.12500
C362        C  0.10626258  0.50022088  0.28623956     0.62100
F363        F  0.90592135  0.41783510  0.25847761    -0.23100
F364        F  0.89543215  0.45355448  0.22086626    -0.20400
F365        F  0.87079083  0.46319738  0.27043277    -0.20100
F366        F  0.14489959  0.48798719  0.26825114    -0.20200
F367        F  0.11518880  0.49367229  0.31745614    -0.20500
F368        F  0.09145310  0.03009497  0.30005409    -0.23200
C369        C  0.95671251  0.34589734  0.38469706    -0.06000
C370        C  0.97571675  0.35058516  0.41493202    -0.00100
C371        C  0.02856055  0.35165605  0.41990989    -0.08600
C372        C  0.06084745  0.35005806  0.39384749    -0.06000
C373        C  0.04167217  0.34866297  0.36325086    -0.00100
C374        C  0.98899562  0.34544093  0.35850075    -0.08500
C375        C  0.96701063  0.34438744  0.32581778     0.61800
H376        H  0.91590546  0.34547266  0.38149046     0.12500
H377        H  0.10140106  0.35314115  0.39692048     0.12500
C378        C  0.05021568  0.35709427  0.45223945     0.62100
F379        F  0.91476854  0.34134414  0.32625353    -0.23100
F380        F  0.98724194  0.31937768  0.31010804    -0.20400
F381        F  0.97873275  0.37142902  0.30973209    -0.20100
F382        F  0.10270715  0.35764307  0.45202539    -0.20200
F383        F  0.03477048  0.33357405  0.47226160    -0.20500
F384        F  0.03316886  0.38522586  0.46350037    -0.23200
C385        C  0.20499395  0.22183263  0.05112512    -0.06000
C386        C  0.25793528  0.22456884  0.05326711    -0.00100
C387        C  0.28881770  0.19783565  0.05197567    -0.08600
C388        C  0.26551877  0.16895725  0.05151787    -0.06000
C389        C  0.21263922  0.16572945  0.05027225    -0.00100
C390        C  0.18148186  0.19258562  0.04904290    -0.08500
C391        C  0.12425006  0.19057219  0.04621938     0.61800
H392        H  0.18231666  0.24280658  0.05133166     0.12500
H393        H  0.28908645  0.14836043  0.05124806     0.12500
C394        C  0.34607986  0.19959872  0.04942723     0.62100
F395        F  0.10152936  0.21952176  0.04767914    -0.23100
F396        F  0.10506948  0.17243277  0.07028378    -0.20400
F397        F  0.11136683  0.17771745  0.01787627    -0.20100
F398        F  0.36598589  0.21102277  0.07679790    -0.20200
F399        F  0.35881600  0.21860293  0.02441482    -0.20500
F400        F  0.36801630  0.17086834  0.04433271    -0.23200
C401        C  0.32587108  0.43845102  0.03964242    -0.06000
C402        C  0.29033778  0.41462019  0.03670818    -0.00100
C403        C  0.23827697  0.42172257  0.03201865    -0.08600
C404        C  0.22299154  0.45263718  0.03418339    -0.06000
C405        C  0.25794370  0.47610975  0.04002474    -0.00100
C406        C  0.31035409  0.46946213  0.04143371    -0.08500
C407        C  0.34655418  0.99409233  0.03002648     0.61800
H408        H  0.36558886  0.43239530  0.04245465     0.12500
H409        H  0.18309944  0.45868915  0.03252203     0.12500
C410        C  0.19909542  0.39724873  0.02395543     0.62100
F411        F  0.39503743  0.98201909  0.02719884    -0.23100
F412        F  0.34568714  0.01320930  0.05568142    -0.20400
F413        F  0.33617996  0.01144564  0.00342554    -0.20100
F414        F  0.19085499  0.37756032  0.04912534    -0.20200
F415        F  0.21593200  0.38039720  0.99869563    -0.20500
F416        F  0.15287017  0.41040537  0.01590678    -0.23200
C417        C  0.52731463  0.22554432  0.98282610    -0.06000
C418        C  0.54470579  0.20193888  0.00316690    -0.00100
C419        C  0.52553702  0.20111476  0.03423911    -0.08600
C420        C  0.49162809  0.22458835  0.04405336    -0.06000
C421        C  0.47461387  0.24836810  0.02384331    -0.00100
C422        C  0.49146455  0.24814522  0.99225962    -0.08500
C423        C  0.46933910  0.27031540  0.96802828     0.61800
H424        H  0.54111873  0.22565575  0.95898942     0.12500
H425        H  0.47776787  0.22444649  0.06787110     0.12500
C426        C  0.54113679  0.17581052  0.05725800     0.62100
F427        F  0.48566777  0.30019306  0.97355360    -0.23100
F428        F  0.41697456  0.26928892  0.96936649    -0.20400
F429        F  0.47600886  0.25562092  0.43462555    -0.20100
F430        F  0.59341945  0.17438824  0.05920629    -0.20200
F431        F  0.53357269  0.15055751  0.55289314    -0.20500
F432        F  0.52240922  0.18110561  0.08693877    -0.23200
C433        C  0.27729863  0.36264236  0.15592738    -0.06000
C434        C  0.25556073  0.33624256  0.14235370    -0.00100
C435        C  0.20802546  0.32551653  0.15390775    -0.08600
C436        C  0.18588530  0.34036730  0.17984665    -0.06000
C437        C  0.20912669  0.36558605  0.19436660    -0.00100
C438        C  0.25399485  0.37807678  0.18105868    -0.08500
C439        C  0.27804984  0.40778670  0.19252381     0.61800
H440        H  0.31246328  0.37170407  0.14643109     0.12500
H441        H  0.15187545  0.33095257  0.19045895     0.12500
C442        C  0.18206537  0.29732354  0.14033011     0.62100
F443        F  0.28676141  0.42752648  0.16738071    -0.23100
F444        F  0.32378212  0.40106037  0.20684364    -0.20400
F445        F  0.24730452  0.42334093  0.21338168    -0.20100
F446        F  0.21569533  0.27266349  0.13943174    -0.20200
F447        F  0.16513470  0.30410732  0.11046964    -0.20500
F448        F  0.14058116  0.28820085  0.15797899    -0.23200
C449        C  0.32702216  0.34221129  0.42620617    -0.06000
C450        C  0.29384775  0.32777129  0.44736622    -0.00100
C451        C  0.24306261  0.32219862  0.43789099    -0.08600
C452        C  0.22547933  0.33561948  0.40982890    -0.06000
C453        C  0.25734517  0.35267767  0.38978898    -0.00100
C454        C  0.31020792  0.35403774  0.39706800    -0.08500
C455        C  0.34913849  0.36819535  0.37496450     0.61800
H456        H  0.36603573  0.34541968  0.43333264     0.12500
H457        H  0.18601392  0.33277000  0.40338809     0.12500
C458        C  0.20721190  0.30183615  0.45685201     0.62100
F459        F  0.39766466  0.36709401  0.38728371    -0.23100
F460        F  0.33746164  0.39889861  0.36898677    -0.20400
F461        F  0.34991602  0.35198275  0.34727635    -0.20100
F462        F  0.18850330  0.31975952  0.98022077    -0.20200
F463        F  0.23854268  0.27779983  0.97308493    -0.20500
F464        F  0.16786724  0.29097615  0.43859394    -0.23200
C465        C  0.83377556  0.19076627  0.23597685    -0.06000
C466        C  0.79616819  0.16773244  0.23746504    -0.00100
C467        C  0.74428774  0.17651584  0.24022863    -0.08600
C468        C  0.73204201  0.20804143  0.23899137    -0.06000
C469        C  0.76910357  0.23081580  0.23523162    -0.00100
C470        C  0.82092015  0.22251533  0.23458955    -0.08500
C471        C  0.86181961  0.24696201  0.23141201     0.61800
H472        H  0.87316658  0.18364961  0.23463912     0.12500
H473        H  0.69266322  0.21527784  0.23973306     0.12500
C474        C  0.70140300  0.15322573  0.24456718     0.62100
F475        F  0.90970329  0.23386312  0.22947799    -0.23100
F476        F  0.86061876  0.26603642  0.25715496    -0.20400
F477        F  0.85370972  0.26462416  0.20469992    -0.20100
F478        F  0.71230260  0.13333784  0.26918346    -0.20200
F479        F  0.69461713  0.13640480  0.21759970    -0.20500
F480        F  0.65570020  0.16766001  0.25121184    -0.23200
C481        C  0.71707048  0.46757777  0.20785790    -0.06000
C482        C  0.73492018  0.48162552  0.23513392    -0.00100
C483        C  0.72870203  0.46626567  0.26436597    -0.08600
C484        C  0.71177506  0.43534168  0.26448647    -0.06000
C485        C  0.69934570  0.42048178  0.23657041    -0.00100
C486        C  0.69805123  0.43736162  0.20824477    -0.08500
C487        C  0.67658427  0.42343804  0.17868531     0.61800
H488        H  0.71490998  0.98060347  0.18326270     0.12500
H489        H  0.71054099  0.42205193  0.28610618     0.12500
C490        C  0.74183663  0.48172685  0.29491980     0.62100
F491        F  0.62992212  0.41020805  0.18505110    -0.23100
F492        F  0.70905610  0.40096809  0.16748969    -0.20400
F493        F  0.66971458  0.44569933  0.15551393    -0.20100
F494        F  0.71217117  0.50793855  0.29862960    -0.20200
F495        F  0.79231684  0.48998156  0.29480228    -0.20500
F496        F  0.73347873  0.46235426  0.32039040    -0.23200
C497        C  0.53050917  0.24255191  0.28168424    -0.06000
C498        C  0.54891225  0.24265493  0.25086560    -0.00100
C499        C  0.52829692  0.22086088  0.22957016    -0.08600
C500        C  0.48960555  0.20036171  0.23986015    -0.06000
C501        C  0.47057899  0.20068970  0.27054043    -0.00100
C502        C  0.49267962  0.22161442  0.29214066    -0.08500
C503        C  0.47852188  0.22094605  0.32655648     0.61800
H504        H  0.54660838  0.25901494  0.29779059     0.12500
H505        H  0.47343186  0.18389690  0.22379343     0.12500
C506        C  0.54564473  0.21974355  0.19576768     0.62100
F507        F  0.50903010  0.24030391  0.34397187    -0.23100
F508        F  0.48425485  0.19116381  0.33838775    -0.20400
F509        F  0.42887222  0.23051238  0.33036171    -0.20100
F510        F  0.59572178  0.21026735  0.19443831    -0.20200
F511        F  0.54081535  0.24879301  0.18205178    -0.20500
F512        F  0.51718782  0.19918740  0.17843971    -0.23200
C513        C  0.69368949  0.36376416  0.34353862    -0.06000
C514        C  0.71100351  0.33539962  0.33165943    -0.00100
C515        C  0.74942697  0.31878706  0.34786486    -0.08600
C516        C  0.76968848  0.33132835  0.37541326    -0.06000
C517        C  0.75385807  0.36027460  0.38649937    -0.00100
C518        C  0.71507849  0.37680539  0.37055125    -0.08500
C519        C  0.69927049  0.40906355  0.38070604     0.61800
H520        H  0.66573870  0.37670698  0.33016225     0.12500
H521        H  0.79934961  0.31906757  0.38802784     0.12500
C522        C  0.77024609  0.28855194  0.33535037     0.62100
F523        F  0.66390148  0.42217579  0.36061890    -0.23100
F524        F  0.74131257  0.42817479  0.38115075    -0.20400
F525        F  0.67809527  0.40775766  0.41023234    -0.20100
F526        F  0.79618152  0.29419286  0.30782935    -0.20200
F527        F  0.73083173  0.26827255  0.32973485    -0.20500
F528        F  0.80335053  0.27441114  0.35621495    -0.23200
C529        C  0.78586918  0.32377443  0.08047035    -0.06000
C530        C  0.81032997  0.35266620  0.07767620    -0.00100
C531        C  0.81715167  0.37062373  0.10485888    -0.08600
C532        C  0.79524431  0.36008572  0.13336764    -0.06000
C533        C  0.76679396  0.33244481  0.13516210    -0.00100
C534        C  0.76443843  0.31323064  0.10868871    -0.08500
C535        C  0.73964287  0.28150703  0.11017662     0.61800
H536        H  0.78205838  0.30971775  0.05976387     0.12500
H537        H  0.79859112  0.37393826  0.15421673     0.12500
C538        C  0.84540464  0.40113378  0.10343959     0.62100
F539        F  0.75163264  0.26401163  0.08430035    -0.23100
F540        F  0.68752766  0.28484994  0.11156632    -0.20400
F541        F  0.75633685  0.26525928  0.13626786    -0.20100
F542        F  0.82084966  0.42133222  0.08331653    -0.20200
F543        F  0.89426023  0.39628050  0.09279195    -0.20500
F544        F  0.84822783  0.41492755  0.13243016    -0.23200
C545        C  0.46021048  0.35941649  0.14245827    -0.06000
C546        C  0.47783590  0.35366228  0.11200229    -0.00100
C547        C  0.53031755  0.34933661  0.10699129    -0.08600
C548        C  0.56281951  0.34785047  0.13295759    -0.06000
C549        C  0.54418821  0.34922540  0.16366085    -0.00100
C550        C  0.49260054  0.35687694  0.16866217    -0.08500
C551        C  0.47081408  0.35901810  0.20136366     0.61800
H552        H  0.41974581  0.36221127  0.14588863     0.12500
H553        H  0.60263510  0.34252492  0.12959466     0.12500
C554        C  0.55108201  0.34330452  0.07457115     0.62100
F555        F  0.42057185  0.36842268  0.20095386    -0.23100
F556        F  0.49789539  0.38032492  0.21849909    -0.20400
F557        F  0.47355843  0.33029404  0.21598914    -0.20100
F558        F  0.53740954  0.36743283  0.05474671    -0.20200
F559        F  0.53161922  0.31586517  0.06332846    -0.20500
F560        F  0.60345881  0.34091918  0.07453754    -0.23200
O561        O  0.75834095  0.31822661  0.69023028    -0.85600
O562        O  0.71928575  0.36824914  0.72105552    -0.82600
C563        C  0.68891817  0.38529019  0.73583262     0.97900
O564        O  0.65407085  0.37393183  0.75265355    -0.82600
O565        O  0.58604866  0.35136150  0.71026852    -0.85300
C566        C  0.57362691  0.33601825  0.68656971     1.02400
O567        O  0.58890533  0.30856667  0.68328364    -0.78000
O568        O  0.68731845  0.31517160  0.66440624    -0.78200
C569        C  0.73416088  0.32082331  0.66503199     1.02400
O570        O  0.74927161  0.28189714  0.74609843    -0.85600
O571        O  0.72393725  0.33477631  0.77823364    -0.82600
C572        C  0.69095537  0.32727824  0.79817145     0.97900
O573        O  0.64717088  0.31872608  0.78966308    -0.82600
O574        O  0.57174164  0.29598234  0.74886828    -0.85300
C575        C  0.57795288  0.26782818  0.74114195     1.02400
O576        O  0.61641593  0.26005251  0.72535734    -0.78100
O577        O  0.71525950  0.26320166  0.70339301    -0.78200
C578        C  0.74256739  0.25985240  0.72746960     1.02400
Cr579      Cr  0.73234965  0.32493559  0.73344299     1.93700
Cr580      Cr  0.61849273  0.33324601  0.74862275     1.93200
Cr581      Cr  0.65331078  0.28883482  0.69660132     1.39100
O582        O  0.66775347  0.31527524  0.72665963    -1.23300
O583        O  0.25700596  0.30936199  0.59100741    -0.85600
O584        O  0.28064347  0.36140777  0.55741508    -0.82600
C585        C  0.30487002  0.38064468  0.54103779     0.97900
O586        O  0.34342131  0.37246888  0.52534639    -0.82600
O587        O  0.42079663  0.35288197  0.56459864    -0.85300
C588        C  0.43900436  0.33762022  0.58730624     1.02400
O589        O  0.42744697  0.30971066  0.59158163    -0.78000
O590        O  0.33035468  0.31346222  0.61360953    -0.78200
C591        C  0.28291169  0.31708223  0.61429313     1.02400
O592        O  0.26756490  0.27390284  0.53544112    -0.85600
O593        O  0.27824454  0.32796004  0.50145249    -0.82600
C594        C  0.31606386  0.32388220  0.98133155     0.97900
O595        O  0.35640903  0.31840835  0.48761403    -0.82600
O596        O  0.43770496  0.29858482  0.52488912    -0.85300
C597        C  0.43533130  0.27011796  0.53296486     1.02400
O598        O  0.40206187  0.26099248  0.55219872    -0.78100
O599        O  0.30601594  0.25847325  0.57834694    -0.78200
C600        C  0.27783575  0.25303554  0.55521420     1.02400
Cr601      Cr  0.27640087  0.31762746  0.54659808     1.93700
Cr602      Cr  0.38645081  0.33378549  0.52758877     1.93200
Cr603      Cr  0.36442488  0.28758182  0.58159030     1.39100
O604        O  0.34290136  0.31270546  0.55136648    -1.23300
O605        O  0.26578799  0.37161448  0.83769797    -0.85600
O606        O  0.23008983  0.32396038  0.80206314    -0.82600
C607        C  0.19925717  0.30802197  0.78652375     0.97900
O608        O  0.16355117  0.32034180  0.77100666    -0.82600
O609        O  0.09268782  0.34298944  0.81175451    -0.85300
C610        C  0.07821312  0.35814203  0.83511184     1.02400
O611        O  0.09616684  0.38440691  0.84067617    -0.78000
O612        O  0.19314026  0.37225281  0.86145920    -0.78200
C613        C  0.23979086  0.36518391  0.86155252     1.02400
O614        O  0.25998444  0.41195370  0.78388764    -0.85600
O615        O  0.23744787  0.36066476  0.74792998    -0.82600
C616        C  0.20502856  0.36802287  0.72765969     0.97900
O617        O  0.16118373  0.37689379  0.73564881    -0.82600
O618        O  0.08580600  0.40018128  0.77572532    -0.85300
C619        C  0.09211176  0.42788173  0.78497188     1.02400
O620        O  0.12929134  0.43394498  0.80265743    -0.78100
O621        O  0.22625355  0.42689930  0.82781173    -0.78200
C622        C  0.25461947  0.43222199  0.80471856     1.02400
Cr623      Cr  0.24300284  0.36806472  0.79326957     1.93700
Cr624      Cr  0.12965707  0.36165725  0.77544914     1.93200
Cr625      Cr  0.16276375  0.40239624  0.83063305     1.39100
O626        O  0.17810006  0.37760276  0.79931681    -1.23300
O627        O  0.74975038  0.37808138  0.93765269    -0.85600
O628        O  0.78822792  0.32705520  0.96874984    -0.82600
C629        C  0.81951765  0.30955445  0.98272620     0.97900
O630        O  0.85767206  0.32037968  0.99681430    -0.82600
O631        O  0.92404120  0.34610603  0.95488722    -0.85300
C632        C  0.93559965  0.36221615  0.93122516     1.02400
O633        O  0.91840975  0.38925347  0.92783989    -0.78000
O634        O  0.82000120  0.37948399  0.91109380    -0.78200
C635        C  0.77341304  0.37314746  0.91259069     1.02400
O636        O  0.76260648  0.41348287  0.99402023    -0.85600
O637        O  0.78467449  0.35843177  0.52777643    -0.82600
C638        C  0.81784722  0.36336383  0.54821096     0.97900
O639        O  0.86064834  0.37413175  0.54039999    -0.82600
O640        O  0.93401167  0.40127934  0.50069061    -0.85300
C641        C  0.92667310  0.42882734  0.98710880     1.02400
O642        O  0.88902684  0.43613939  0.97023292    -0.78100
O643        O  0.79033285  0.43176160  0.94924659    -0.78200
C644        C  0.76617303  0.43544592  0.97446136     1.02400
Cr645      Cr  0.77704824  0.37041497  0.98085217     1.93700
Cr646      Cr  0.89150534  0.36191432  0.99382321     1.93200
Cr647      Cr  0.85326556  0.40702639  0.94207639     1.39100
O648        O  0.84111781  0.37997924  0.97273450    -1.23300
O649        O  0.18831724  0.05751163  0.61094111    -0.85600
O650        O  0.09068049  0.05301454  0.59175146    -0.82600
C651        C  0.07442337  0.08028300  0.58843764     0.97900
O652        O  0.08777753  0.09697682  0.56573577    -0.82600
O653        O  0.16121361  0.12366004  0.53117096    -0.85300
C654        C  0.19601045  0.13102188  0.55010998     1.02400
O655        O  0.22296321  0.11068649  0.56338444    -0.78000
O656        O  0.25985055  0.05629660  0.58664274    -0.78200
C657        C  0.23538278  0.06233027  0.61099952     1.02400
O658        O  0.21488588  0.00728564  0.56791647    -0.85600
O659        O  0.11743500  0.00844687  0.54666950    -0.82600
C660        C  0.08076834  0.01781334  0.53017096     0.97900
O661        O  0.07701903  0.04636153  0.52226779    -0.82600
O662        O  0.15564250  0.07512147  0.48580572    -0.85300
C663        C  0.19469848  0.08673343  0.98042808     1.02400
O664        O  0.23049867  0.08874486  0.50177834    -0.78100
O665        O  0.24911017  0.02950514  0.52633352    -0.78200
C666        C  0.24111366  0.00574040  0.54312037     1.02400
Cr667      Cr  0.15433828  0.03358108  0.57725986     1.93700
Cr668      Cr  0.12381647  0.08336085  0.52770523     1.93200
Cr669      Cr  0.23557937  0.07053219  0.54454065     1.39100
O670        O  0.17047058  0.06191350  0.54900382    -1.23300
O671        O  0.82522735  0.06424571  0.66360885    -0.85600
O672        O  0.92339229  0.05825198  0.68351274    -0.82600
C673        C  0.93845148  0.08562881  0.68683600     0.97900
O674        O  0.92396520  0.10176701  0.70947092    -0.82600
O675        O  0.85122901  0.12529870  0.74883973    -0.85300
C676        C  0.81345180  0.13421303  0.73257194     1.02400
O677        O  0.78890247  0.11517269  0.71669493    -0.78000
O678        O  0.75375679  0.06331354  0.68842541    -0.78200
C679        C  0.77801332  0.06928178  0.66376202     1.02400
O680        O  0.79876972  0.01134828  0.70376364    -0.85600
O681        O  0.89727608  0.01088884  0.72630504    -0.82600
C682        C  0.93378262  0.01910407  0.74350527     0.97900
O683        O  0.93885720  0.04768465  0.75040004    -0.82600
O684        O  0.86172768  0.07183036  0.78914809    -0.85300
C685        C  0.81844972  0.08204955  0.79658961     1.02400
O686        O  0.78502404  0.08594613  0.77588371    -0.78100
O687        O  0.76524734  0.03029104  0.74647898    -0.78200
C688        C  0.77053800  0.00830746  0.72761117     1.02400
Cr689      Cr  0.85969445  0.03814234  0.69651536     1.93700
Cr690      Cr  0.89057545  0.08478162  0.74769077     1.93200
Cr691      Cr  0.77843601  0.07285078  0.73166738     1.39100
O692        O  0.84350076  0.06476853  0.72592166    -1.23300
O693        O  0.31509917  0.12931282  0.85787261    -0.85600
O694        O  0.41301665  0.13569942  0.84080962    -0.82600
C695        C  0.43203438  0.10931479  0.83625053     0.97900
O696        O  0.42154560  0.09416571  0.81204578    -0.82600
O697        O  0.35196377  0.06855106  0.77222784    -0.85300
C698        C  0.31716939  0.05744125  0.78943568     1.02400
O699        O  0.28663605  0.07486391  0.80360123    -0.78000
O700        O  0.24435977  0.12514341  0.83251792    -0.78200
C701        C  0.26856243  0.12295139  0.85771056     1.02400
O702        O  0.28748638  0.18063333  0.81717158    -0.85600
O703        O  0.38677410  0.18380705  0.79729835    -0.82600
C704        C  0.42413668  0.17666478  0.78033922     0.97900
O705        O  0.43035175  0.14871500  0.77185841    -0.82600
O706        O  0.35518067  0.12326915  0.73290702    -0.85300
C707        C  0.31190491  0.11347821  0.72497970     1.02400
O708        O  0.28027954  0.10548755  0.74546297    -0.78100
O709        O  0.25419846  0.15942449  0.77534922    -0.78200
C710        C  0.26066158  0.18246622  0.79274345     1.02400
Cr711      Cr  0.34932601  0.15517460  0.82576502     1.93700
Cr712      Cr  0.38576293  0.11040643  0.77401350     1.93200
Cr713      Cr  0.27186110  0.11723720  0.78968984     1.39100
O714        O  0.33616262  0.12798197  0.79612923    -1.23300
O715        O  0.69552674  0.13831234  0.91153185    -0.85600
O716        O  0.59648395  0.14152739  0.92759551    -0.82600
C717        C  0.57857567  0.11462997  0.93093437     0.97900
O718        O  0.58854869  0.09847711  0.95500577    -0.82600
O719        O  0.65671312  0.07131805  0.99557540    -0.85300
C720        C  0.69183258  0.06075343  0.97862678     1.02400
O721        O  0.72291234  0.07851477  0.96506667    -0.78000
O722        O  0.76472748  0.13068304  0.93802156    -0.78200
C723        C  0.74160825  0.13098257  0.91235121     1.02400
O724        O  0.71880632  0.18666240  0.95563849    -0.85600
O725        O  0.61804826  0.18730986  0.97347756    -0.82600
C726        C  0.58204211  0.17850766  0.99092748     0.97900
O727        O  0.57834915  0.14914610  0.49826931    -0.82600
O728        O  0.65294625  0.12300698  0.53753072    -0.85300
C729        C  0.69651096  0.11369096  0.54593041     1.02400
O730        O  0.72865228  0.10621986  0.52563483    -0.78100
O731        O  0.75384766  0.16216425  0.99574276    -0.78200
C732        C  0.74706002  0.18639675  0.97953617     1.02400
Cr733      Cr  0.65862052  0.16099400  0.94466438     1.93700
Cr734      Cr  0.62233189  0.11264482  0.99434863     1.93200
Cr735      Cr  0.73644555  0.12064745  0.98033645     1.39100
O736        O  0.67206257  0.13185733  0.97346448    -1.23300
C737        C  0.52028871  0.09928517  0.85141077    -0.06000
C738        C  0.46907274  0.09763764  0.85950099    -0.00100
C739        C  0.45565320  0.09362235  0.89138011    -0.08600
C740        C  0.49308948  0.09723142  0.91447278    -0.06000
C741        C  0.54364683  0.10310162  0.90641298    -0.00100
C742        C  0.55808586  0.10157479  0.87443712    -0.08500
C743        C  0.61248477  0.10529724  0.86419115     0.61800
H744        H  0.53018912  0.10194539  0.82694796     0.12500
H745        H  0.48222556  0.09692544  0.93891512     0.12500
C746        C  0.40240736  0.08587638  0.90198899     0.62100
F747        F  0.61971843  0.09597909  0.83364362    -0.23100
F748        F  0.64401837  0.08766761  0.88303330    -0.20400
F749        F  0.62526506  0.13610158  0.86618742    -0.20100
F750        F  0.37127799  0.07807585  0.87733728    -0.20200
F751        F  0.38179546  0.11093152  0.91742798    -0.20500
F752        F  0.40417071  0.06069123  0.92228970    -0.23200
C753        C  0.79279319  0.09192781  0.88399230    -0.06000
C754        C  0.76802487  0.12090555  0.88353036    -0.00100
C755        C  0.76712905  0.13853991  0.85546448    -0.08600
C756        C  0.78619834  0.12500385  0.82813480    -0.06000
C757        C  0.80707829  0.09491170  0.82793452    -0.00100
C758        C  0.81191344  0.07833715  0.85648193    -0.08500
C759        C  0.83452441  0.04603454  0.85765996     0.61800
H760        H  0.79517564  0.07937932  0.90602636     0.12500
H761        H  0.78414654  0.13784857  0.80621109     0.12500
C762        C  0.74889241  0.17204174  0.85454527     0.62100
F763        F  0.83258346  0.03320338  0.88744070    -0.23100
F764        F  0.88468046  0.04708174  0.84832681    -0.20400
F765        F  0.80780754  0.02695142  0.83796634    -0.20100
F766        F  0.77386367  0.18878855  0.87715736    -0.20200
F767        F  0.69749188  0.17368307  0.85998840    -0.20500
F768        F  0.75823950  0.18606415  0.82585111    -0.23200
C769        C  0.77890495  0.10523684  0.61800720    -0.06000
C770        C  0.75188454  0.08318595  0.63570181    -0.00100
C771        C  0.70136544  0.07589064  0.62640716    -0.08600
C772        C  0.68223865  0.08849383  0.59800362    -0.06000
C773        C  0.71118330  0.10865290  0.57926240    -0.00100
C774        C  0.75901875  0.11862352  0.59044540    -0.08500
C775        C  0.78943705  0.14328253  0.57320987     0.61800
H776        H  0.81638722  0.11181584  0.62578099     0.12500
H777        H  0.64561020  0.08136691  0.58934316     0.12500
C778        C  0.66842306  0.05387000  0.64539913     0.62100
F779        F  0.82641466  0.15587603  0.59214072    -0.20700
F780        F  0.75777339  0.16719013  0.56362067    -0.20400
F781        F  0.81299083  0.13053022  0.54750049    -0.20100
F782        F  0.65811915  0.06655069  0.67425882    -0.20200
F783        F  0.69318265  0.02580374  0.64935265    -0.20500
F784        F  0.62248993  0.04821575  0.63092324    -0.23200
C785        C  0.23197158  0.10063426  0.65327707    -0.06000
C786        C  0.26012234  0.07759240  0.63810375    -0.00100
C787        C  0.31030849  0.07107857  0.64853633    -0.08600
C788        C  0.32817910  0.08565696  0.67579047    -0.06000
C789        C  0.29829876  0.10701519  0.69211545    -0.00100
C790        C  0.25050863  0.11592649  0.67971549    -0.08500
C791        C  0.21944824  0.14194307  0.69392049     0.61800
H792        H  0.19485221  0.10659802  0.64424138     0.12500
H793        H  0.36465864  0.07931458  0.68549278     0.12500
C794        C  0.34460298  0.04849973  0.63164478     0.62100
F795        F  0.17926043  0.15061207  0.67488988    -0.23100
F796        F  0.24984190  0.16767536  0.69786914    -0.20400
F797        F  0.19982701  0.13274991  0.72245601    -0.20100
F798        F  0.35725195  0.06077855  0.60271343    -0.20200
F799        F  0.32019137  0.02042529  0.62799187    -0.20500
F800        F  0.38920512  0.04293541  0.64784377    -0.23200
C801        C  0.26104181  0.13029209  0.91405114    -0.06000
C802        C  0.24307679  0.11495917  0.88776387    -0.00100
C803        C  0.20368058  0.09269005  0.89150747    -0.08600
C804        C  0.18859377  0.08398937  0.92211019    -0.06000
C805        C  0.20901883  0.09827427  0.94858228    -0.00100
C806        C  0.24317973  0.12359850  0.94412406    -0.08500
C807        C  0.25794542  0.14554287  0.97010446     0.61800
H808        H  0.28912078  0.14833257  0.91071100     0.12500
H809        H  0.16088750  0.06578068  0.92561897     0.12500
C810        C  0.17750205  0.07816886  0.86376663     0.62100
F811        F  0.28345308  0.17145803  0.95898313    -0.23100
F812        F  0.30190749  0.12465614  0.49032633    -0.20400
F813        F  0.23010525  0.15378735  0.48829319    -0.20100
F814        F  0.21252792  0.06317232  0.84530996    -0.20200
F815        F  0.15324556  0.10103018  0.84642261    -0.20500
F816        F  0.14138171  0.05665900  0.87293360    -0.23200
C817        C  0.05949511  0.09313827  0.64306102    -0.06000
C818        C  0.04037318  0.09231542  0.61253349    -0.00100
C819        C  0.98825775  0.09752882  0.60695300    -0.08600
C820        C  0.95588840  0.10053455  0.63283163    -0.06000
C821        C  0.97433340  0.09736012  0.66346620    -0.00100
C822        C  0.02700939  0.09524828  0.66888241    -0.08500
C823        C  0.04810204  0.09244879  0.70173665     0.61800
H824        H  0.09979713  0.08940684  0.64659593     0.12500
H825        H  0.91520152  0.10185287  0.62936606     0.12500
C826        C  0.96651888  0.09680390  0.57416237     0.62100
F827        F  0.10056671  0.09110972  0.70187306    -0.23100
F828        F  0.03007933  0.06574325  0.71594132    -0.20400
F829        F  0.03313907  0.11787151  0.71890244    -0.20100
F830        F  0.97469579  0.06788993  0.56135202    -0.20200
F831        F  0.98981351  0.11911191  0.55572304    -0.20500
F832        F  0.91485587  0.10263972  0.57396098    -0.23200
C833        C  0.71535859  0.47854448  0.95373498    -0.06000
C834        C  0.74110657  0.46556791  0.97939683    -0.00100
C835        C  0.74858313  0.48342078  0.00659600    -0.08600
C836        C  0.71033680  0.01165492  0.00559299    -0.06000
C837        C  0.69981630  0.02723289  0.97744985    -0.00100
C838        C  0.69922745  0.50950788  0.95352164    -0.08500
C839        C  0.67432628  0.52322673  0.92467679     0.61800
H840        H  0.71011565  0.46454208  0.93315309     0.12500
H841        H  0.70792574  0.02452279  0.02717592     0.12500
C842        C  0.77702625  0.47062633  0.03465019     0.62100
F843        F  0.66613561  0.50115126  0.90199019    -0.23100
F844        F  0.71322290  0.04877901  0.90938893    -0.20400
F845        F  0.63456590  0.53534543  0.42633170    -0.20100
F846        F  0.78154698  0.49231280  0.05811564    -0.20200
F847        F  0.82534096  0.46166786  0.02582781    -0.20500
F848        F  0.71070219  0.93859065  0.04071404    -0.23200
C849        C  0.81996042  0.22173427  0.97703022    -0.06000
C850        C  0.77099205  0.21554480  0.98829308    -0.00100
C851        C  0.74150599  0.23957376  0.00127974    -0.08600
C852        C  0.75959694  0.26988348  0.99919172    -0.06000
C853        C  0.80696678  0.27658170  0.98604258    -0.00100
C854        C  0.83899728  0.25223331  0.97600983    -0.08500
C855        C  0.89108207  0.25864320  0.96233758     0.61800
H856        H  0.84165961  0.20286071  0.96711825     0.12500
H857        H  0.73595421  0.28874682  0.00745349     0.12500
C858        C  0.68894219  0.23465246  0.01482445     0.62100
F859        F  0.91573563  0.23155767  0.95401049    -0.23100
F860        F  0.92091322  0.27352751  0.98403654    -0.20400
F861        F  0.88638157  0.27723672  0.93595411    -0.20100
F862        F  0.68066451  0.20410018  0.02348881    -0.20200
F863        F  0.65325623  0.24374731  0.99293718    -0.20500
F864        F  0.68250631  0.25246147  0.04118376    -0.23200
C865        C  0.98528177  0.44988958  0.53259436    -0.06000
C866        C  0.96026375  0.45469643  0.50401166    -0.00100
C867        C  0.97963508  0.47865619  0.97970777    -0.08600
C868        C  0.01686651  0.49896390  0.99178431    -0.06000
C869        C  0.03468133  0.49771691  0.52618211    -0.00100
C870        C  0.02090987  0.47111803  0.54450989    -0.08500
C871        C  0.04995385  0.96328038  0.57220156     0.61800
H872        H  0.97635399  0.42913262  0.54586922     0.12500
H873        H  0.03051916  0.51807571  0.97757412     0.12500
C874        C  0.95966386  0.48404505  0.94681206     0.62100
F875        F  0.02515488  0.93973873  0.58825283    -0.23100
F876        F  0.04510949  0.98995143  0.58965765    -0.20400
F877        F  0.10049943  0.95499849  0.57004652    -0.20100
F878        F  0.90894832  0.49220297  0.94805244    -0.20200
F879        F  0.96524892  0.45736484  0.92945719    -0.20500
F880        F  0.98535125  0.50766237  0.93145266    -0.23200
C881        C  0.28981487  0.47463931  0.77215408    -0.06000
C882        C  0.27999340  0.46273662  0.80223121    -0.00100
C883        C  0.29036039  0.48137474  0.82877582    -0.08600
C884        C  0.30191340  0.01271926  0.82334725    -0.06000
C885        C  0.31018463  0.02379315  0.79295984    -0.00100
C886        C  0.30543807  0.50548422  0.76740112    -0.08500
C887        C  0.31085150  0.51823152  0.73438675     0.61800
H888        H  0.28214892  0.46015845  0.75221269     0.12500
H889        H  0.30705266  0.02864062  0.84248459     0.12500
C890        C  0.28249386  0.47022627  0.86230995     0.62100
F891        F  0.29846511  0.49643588  0.71214827    -0.23100
F892        F  0.35711374  0.02520643  0.72799939    -0.20400
F893        F  0.27511258  0.04035017  0.72909514    -0.20100
F894        F  0.30494998  0.44155888  0.86665060    -0.20200
F895        F  0.23126028  0.46831707  0.86895171    -0.20500
F896        F  0.28762030  0.99547690  0.88396225    -0.23200
C897        C  0.24595620  0.26455782  0.76463178    -0.06000
C898        C  0.20766754  0.27466766  0.78470195    -0.00100
C899        C  0.18222793  0.25348140  0.80449273    -0.08600
C900        C  0.19759271  0.22227338  0.80426358    -0.06000
C901        C  0.23759789  0.21235302  0.78511795    -0.00100
C902        C  0.26171847  0.23356851  0.76446315    -0.08500
C903        C  0.30687512  0.22575762  0.74387157     0.61800
H904        H  0.26529863  0.28139635  0.74986667     0.12500
H905        H  0.18050362  0.20572365  0.82029516     0.12500
C906        C  0.14078606  0.26426893  0.82649841     0.62100
F907        F  0.29781713  0.23638232  0.71376976    -0.23100
F908        F  0.31705800  0.19439251  0.74232121    -0.20400
F909        F  0.34939850  0.24048912  0.75531127    -0.20100
F910        F  0.10077031  0.27621462  0.80929159    -0.20200
F911        F  0.15933747  0.28705758  0.84589976    -0.20500
F912        F  0.12266388  0.24025439  0.84506025    -0.23200
C913        C  0.01480112  0.44346846  0.75448661    -0.06000
C914        C  0.05333149  0.45245760  0.77530444    -0.00100
C915        C  0.05163660  0.48348939  0.78661909    -0.08600
C916        C  0.01988510  0.00553954  0.76591845    -0.06000
C917        C  0.97236487  0.49425339  0.75672525    -0.00100
C918        C  0.97499263  0.46341520  0.74472361    -0.08500
C919        C  0.93705819  0.45106827  0.72106023     0.61800
H920        H  0.01593852  0.42009660  0.74561551     0.12500
H921        H  0.02639380  0.03027190  0.76669391     0.12500
C922        C  0.09166965  0.49582397  0.80872932     0.62100
F923        F  0.94885830  0.42130768  0.71151605    -0.23100
F924        F  0.93684442  0.46986714  0.69465301    -0.20400
F925        F  0.88907381  0.45005356  0.73410433    -0.20100
F926        F  0.13910776  0.49359980  0.79509686    -0.20200
F927        F  0.09078145  0.47899525  0.83642290    -0.20500
F928        F  0.11133330  0.03014684  0.78247229    -0.23200
C929        C  0.95346842  0.35162177  0.87569607    -0.06000
C930        C  0.97034369  0.35052776  0.90688948    -0.00100
C931        C  0.02180234  0.34383980  0.91329861    -0.08600
C932        C  0.05594925  0.34210833  0.88814104    -0.06000
C933        C  0.03987063  0.34652175  0.85717662    -0.00100
C934        C  0.98765206  0.34928192  0.85052603    -0.08500
C935        C  0.96891741  0.35138458  0.81706131     0.61800
H936        H  0.91372904  0.35622250  0.87122249     0.12500
H937        H  0.09619549  0.33987077  0.89256363     0.12500
C938        C  0.04097197  0.34042467  0.94652557     0.62100
F939        F  0.91649456  0.35222444  0.81553208    -0.23100
F940        F  0.98555489  0.32569006  0.80086081    -0.20400
F941        F  0.98748057  0.37789457  0.80267483    -0.20100
F942        F  0.09281763  0.33547990  0.94752427    -0.20200
F943        F  0.01746911  0.31532469  0.96067971    -0.20500
F944        F  0.03035665  0.36697452  0.96319238    -0.23200
C945        C  0.20304412  0.21885335  0.55359539    -0.06000
C946        C  0.25600587  0.22218267  0.55245938    -0.00100
C947        C  0.28773860  0.19586528  0.55072279    -0.08600
C948        C  0.26560720  0.16683396  0.55170681    -0.06000
C949        C  0.21297455  0.16309816  0.55263014    -0.00100
C950        C  0.18056623  0.18927103  0.55349780    -0.08500
C951        C  0.12337116  0.18595035  0.55554097     0.61800
H952        H  0.17971552  0.23949011  0.55501923     0.12500
H953        H  0.28971411  0.14651083  0.55049824     0.12500
C954        C  0.34467677  0.19812786  0.54664675     0.62100
F955        F  0.09969070  0.21427203  0.55992059    -0.23100
F956        F  0.11090011  0.16672060  0.58045973    -0.20400
F957        F  0.10479238  0.17347086  0.52825175    -0.20100
F958        F  0.36611105  0.20926896  0.57370741    -0.20200
F959        F  0.35522342  0.21751712  0.52155604    -0.20500
F960        F  0.36687973  0.16967127  0.54059231    -0.23200
C961        C  0.32268188  0.43673341  0.54224272    -0.06000
C962        C  0.28689517  0.41291540  0.53972087    -0.00100
C963        C  0.23462689  0.42030948  0.53643919    -0.08600
C964        C  0.21967912  0.45128508  0.53921755    -0.06000
C965        C  0.25508250  0.47480201  0.54381029    -0.00100
C966        C  0.30751767  0.46791376  0.54409745    -0.08500
C967        C  0.35311989  0.99376878  0.53704812     0.61800
H968        H  0.36253747  0.43060266  0.54380736     0.12500
H969        H  0.17975751  0.45742849  0.53842166     0.12500
C970        C  0.19474473  0.39605854  0.52905881     0.62100
F971        F  0.40194831  0.98191405  0.53794354    -0.23100
F972        F  0.34569738  0.01125833  0.56348206    -0.20400
F973        F  0.34883220  0.01269892  0.51089363    -0.20100
F974        F  0.18683275  0.37684153  0.55464196    -0.20200
F975        F  0.21049896  0.37867015  0.50390327    -0.20500
F976        F  0.14864738  0.40949533  0.52120497    -0.23200
C977        C  0.52423641  0.22211912  0.48068418    -0.06000
C978        C  0.54530459  0.20095262  0.50242530    -0.00100
C979        C  0.52932029  0.20254001  0.53409139    -0.08600
C980        C  0.49402440  0.22563971  0.54285378    -0.06000
C981        C  0.47335863  0.24698145  0.52122883    -0.00100
C982        C  0.48771234  0.24464436  0.48937017    -0.08500
C983        C  0.46277156  0.26479798  0.46443445     0.61800
H984        H  0.53594803  0.22044816  0.45649554     0.12500
H985        H  0.48209437  0.22722971  0.56700172     0.12500
C986        C  0.54992738  0.18034797  0.55882412     0.62100
F987        F  0.47744445  0.29531139  0.46793763    -0.23100
F988        F  0.41057289  0.26276072  0.46703253    -0.20400
F989        F  0.48362281  0.26253215  0.93798677    -0.20100
F990        F  0.60229445  0.18099684  0.55869720    -0.20200
F991        F  0.52249366  0.14755948  0.04755957    -0.20500
F992        F  0.53375668  0.18808669  0.58851777    -0.23200
C993        C  0.28318379  0.35696715  0.65497963    -0.06000
C994        C  0.25814234  0.33175613  0.64152887    -0.00100
C995        C  0.21044116  0.32223624  0.65372008    -0.08600
C996        C  0.19147171  0.33712497  0.68049869    -0.06000
C997        C  0.21811648  0.36119281  0.69490064    -0.00100
C998        C  0.26369977  0.37215761  0.68126371    -0.08500
C999        C  0.29111095  0.40021783  0.69404580     0.61800
H1000       H  0.31857348  0.36470766  0.64467863     0.12500
H1001       H  0.15694015  0.32889449  0.69150326     0.12500
C1002       C  0.18058996  0.29578136  0.63951067     0.62100
F1003       F  0.33039889  0.40959668  0.67467454    -0.23100
F1004       F  0.31131150  0.39352151  0.72311107    -0.20400
F1005       F  0.25733602  0.42466449  0.69651509    -0.20100
F1006       F  0.21109883  0.26977649  0.63684313    -0.20200
F1007       F  0.16302969  0.30456548  0.61028933    -0.20500
F1008       F  0.13901014  0.28771932  0.65759124    -0.23200
C1009       C  0.33386432  0.33803529  0.92547901    -0.06000
C1010       C  0.30002104  0.32623973  0.94789714    -0.00100
C1011       C  0.24883213  0.32145528  0.93895791    -0.08600
C1012       C  0.23100258  0.33492376  0.91099837    -0.06000
C1013       C  0.26362623  0.34977326  0.88966660    -0.00100
C1014       C  0.31701471  0.34839760  0.89570913    -0.08500
C1015       C  0.35651396  0.35733260  0.87136669     0.61800
H1016       H  0.37335821  0.34009216  0.93182858     0.12500
H1017       H  0.19105993  0.33342536  0.90559269     0.12500
C1018       C  0.21266977  0.30171616  0.95824344     0.62100
F1019       F  0.40545270  0.35248892  0.88212099    -0.23100
F1020       F  0.35191439  0.38829523  0.86340190    -0.20400
F1021       F  0.35029268  0.33939524  0.84504860    -0.20100
F1022       F  0.18643278  0.31847834  0.48113730    -0.20200
F1023       F  0.23294685  0.27629614  0.46870977    -0.20500
F1024       F  0.17627641  0.28838996  0.93937599    -0.23200
C1025       C  0.83072650  0.19060925  0.73630921    -0.06000
C1026       C  0.79517435  0.16655199  0.73358716    -0.00100
C1027       C  0.74245032  0.17374193  0.73224396    -0.08600
C1028       C  0.72783356  0.20483048  0.73254590    -0.06000
C1029       C  0.76322645  0.22879490  0.73354680    -0.00100
C1030       C  0.81555380  0.22197306  0.73579206    -0.08500
C1031       C  0.85489097  0.24751415  0.73642228     0.61800
H1032       H  0.87062863  0.18465792  0.73776768     0.12500
H1033       H  0.68800554  0.21090630  0.73070750     0.12500
C1034       C  0.70097959  0.14924158  0.73028217     0.62100
F1035       F  0.90379308  0.23575683  0.73571564    -0.23100
F1036       F  0.84931154  0.26440035  0.76343733    -0.20400
F1037       F  0.84876396  0.26701032  0.71081324    -0.20100
F1038       F  0.70764684  0.12706286  0.75349114    -0.20200
F1039       F  0.70206491  0.13539487  0.70127931    -0.20500
F1040       F  0.65303562  0.16182613  0.73415415    -0.23200
C1041       C  0.71687637  0.46580256  0.70762288    -0.06000
C1042       C  0.73825399  0.47830470  0.73466442    -0.00100
C1043       C  0.73387747  0.46235228  0.76363714    -0.08600
C1044       C  0.71421075  0.43213443  0.76351287    -0.06000
C1045       C  0.69763671  0.41864334  0.73570503    -0.00100
C1046       C  0.69514807  0.43630583  0.70786161    -0.08500
C1047       C  0.66854005  0.42433768  0.67898621     0.61800
H1048       H  0.72622167  0.97841054  0.68219977     0.12500
H1049       H  0.71385520  0.41825880  0.78477689     0.12500
C1050       C  0.75152562  0.47649905  0.79407904     0.62100
F1051       F  0.61953060  0.41585389  0.68671059    -0.23100
F1052       F  0.69389563  0.39889965  0.66735502    -0.20400
F1053       F  0.66596706  0.44672150  0.65557670    -0.20100
F1054       F  0.72306232  0.50273596  0.80025926    -0.20200
F1055       F  0.80220134  0.48442322  0.79192106    -0.20500
F1056       F  0.74587976  0.45617430  0.81910357    -0.23200
C1057       C  0.51629547  0.24620963  0.78012773    -0.06000
C1058       C  0.53873470  0.24408297  0.75043079    -0.00100
C1059       C  0.52107770  0.22067927  0.72992914    -0.08600
C1060       C  0.48381071  0.19940268  0.74058608    -0.06000
C1061       C  0.46197545  0.20114759  0.77053173    -0.00100
C1062       C  0.47839402  0.22531744  0.79063633    -0.08500
C1063       C  0.45768222  0.22862595  0.82359522     0.61800
H1064       H  0.52923308  0.26445135  0.79532988     0.12500
H1065       H  0.47092501  0.18121619  0.72529133     0.12500
C1066       C  0.53958470  0.21891631  0.69636922     0.62100
F1067       F  0.48205237  0.25180344  0.83988367    -0.23100
F1068       F  0.46437355  0.20109855  0.84000537    -0.20400
F1069       F  0.40668929  0.23610281  0.82255190    -0.20100
F1070       F  0.58999614  0.21009276  0.69577620    -0.20200
F1071       F  0.53412246  0.24756675  0.68185159    -0.20500
F1072       F  0.51233326  0.19760132  0.67926156    -0.23200
C1073       C  0.67902486  0.35634076  0.84693131    -0.06000
C1074       C  0.70431612  0.33242419  0.83129979    -0.00100
C1075       C  0.74979015  0.32018178  0.84413596    -0.08600
C1076       C  0.77072937  0.33406437  0.87075015    -0.06000
C1077       C  0.74702244  0.35916690  0.88545686    -0.00100
C1078       C  0.69966164  0.37008952  0.87387597    -0.08500
C1079       C  0.67287325  0.39758071  0.88841516     0.61800
H1080       H  0.64479883  0.36574056  0.83648125     0.12500
H1081       H  0.80662156  0.32566589  0.87990944     0.12500
C1082       C  0.77831202  0.29388115  0.82870960     0.62100
F1083       F  0.63064248  0.40665741  0.87139468    -0.23100
F1084       F  0.70563848  0.42252358  0.88958099    -0.20400
F1085       F  0.65701203  0.38991859  0.91828842    -0.20100
F1086       F  0.80870553  0.30577319  0.80518904    -0.20200
F1087       F  0.74483713  0.27266515  0.81627551    -0.20500
F1088       F  0.80871953  0.27820150  0.85003680    -0.23200
C1089       C  0.78717986  0.32164910  0.58283558    -0.06000
C1090       C  0.80601880  0.35211564  0.58030866    -0.00100
C1091       C  0.80703848  0.37089882  0.60715889    -0.08600
C1092       C  0.78396305  0.35968422  0.63482899    -0.06000
C1093       C  0.76136826  0.33020213  0.63629754    -0.00100
C1094       C  0.76631213  0.31000871  0.61077933    -0.08500
C1095       C  0.75256471  0.27591973  0.61384062     0.61800
H1096       H  0.78867779  0.30698077  0.56246362     0.12500
H1097       H  0.78249010  0.37408960  0.65537200     0.12500
C1098       C  0.83090851  0.40272217  0.60626286     0.62100
F1099       F  0.76351643  0.25983645  0.58687089    -0.23100
F1100       F  0.70146021  0.27257058  0.62016974    -0.20400
F1101       F  0.78035290  0.26264181  0.63793982    -0.20100
F1102       F  0.80679770  0.42087139  0.58411833    -0.20200
F1103       F  0.88169105  0.40008949  0.59864533    -0.20500
F1104       F  0.82720851  0.41746872  0.63474165    -0.23200
C1105       C  0.45699920  0.35701888  0.64001978    -0.06000
C1106       C  0.47509318  0.35089857  0.60977339    -0.00100
C1107       C  0.52776902  0.34795771  0.60476374    -0.08600
C1108       C  0.56019902  0.34702250  0.63080272    -0.06000
C1109       C  0.54128858  0.34906235  0.66141322    -0.00100
C1110       C  0.48968398  0.35659985  0.66611915    -0.08500
C1111       C  0.46896501  0.36207884  0.69862853     0.61800
H1112       H  0.41641997  0.35929425  0.64342231     0.12500
H1113       H  0.60012959  0.34190370  0.62759189     0.12500
C1114       C  0.54885611  0.34318834  0.57222220     0.62100
F1115       F  0.41832774  0.37059189  0.69792705    -0.23100
F1116       F  0.49583660  0.38574453  0.71248886    -0.20400
F1117       F  0.47365692  0.33537341  0.71660749    -0.20100
F1118       F  0.53095951  0.36635541  0.55249187    -0.20200
F1119       F  0.53372562  0.31468481  0.56109253    -0.20500
F1120       F  0.60132577  0.34418394  0.57189214    -0.23200
O1121       O  0.76033728  0.81948458  0.18863604    -0.85600
O1122       O  0.71975551  0.86986609  0.21854739    -0.82600
C1123       C  0.68990432  0.88667842  0.23396789     0.97900
O1124       O  0.65711439  0.87505685  0.25217981    -0.82600
O1125       O  0.58658532  0.85153574  0.21229323    -0.85300
C1126       C  0.57436076  0.83656347  0.18832422     1.02400
O1127       O  0.59112311  0.80959085  0.18388708    -0.78000
O1128       O  0.68845585  0.81605032  0.16412866    -0.78200
C1129       C  0.73525183  0.82159018  0.16376623     1.02400
O1130       O  0.75397980  0.78477114  0.24532396    -0.85600
O1131       O  0.72886096  0.83836928  0.27656329    -0.82600
C1132       C  0.69802094  0.82994889  0.29739857     0.97900
O1133       O  0.65448391  0.82001606  0.28998346    -0.82600
O1134       O  0.57659998  0.79636955  0.25114897    -0.85300
C1135       C  0.58173304  0.76842706  0.24247797     1.02400
O1136       O  0.61910501  0.76087698  0.22563575    -0.78100
O1137       O  0.71809507  0.76452681  0.20377815    -0.78200
C1138       C  0.74660306  0.76215749  0.22749088     1.02400
Cr1139     Cr  0.73532565  0.82719350  0.23191000     1.93700
Cr1140     Cr  0.62239915  0.83398620  0.24964111     1.93200
Cr1141     Cr  0.65566233  0.78984775  0.19683240     1.39100
O1142       O  0.67073020  0.81651152  0.22656443    -1.23300
O1143       O  0.25797728  0.81226274  0.09611259    -0.85600
O1144       O  0.28113206  0.86268606  0.05982969    -0.82600
C1145       C  0.30473873  0.88134622  0.04241463     0.97900
O1146       O  0.34307013  0.87253892  0.02699816    -0.82600
O1147       O  0.41932366  0.85420504  0.06768953    -0.85300
C1148       C  0.43848008  0.83899435  0.09011595     1.02400
O1149       O  0.42856004  0.81080545  0.09387330    -0.78000
O1150       O  0.33234216  0.81571035  0.11803113    -0.78200
C1151       C  0.28490354  0.81951328  0.11924547     1.02400
O1152       O  0.26664124  0.77390353  0.04165643    -0.85600
O1153       O  0.27762907  0.82664674  0.00517666    -0.82600
C1154       C  0.31657704  0.82172276  0.48230879     0.97900
O1155       O  0.35613839  0.81774546  0.99128005    -0.82600
O1156       O  0.43748605  0.79906442  0.02934101    -0.85300
C1157       C  0.43437120  0.77051195  0.03689693     1.02400
O1158       O  0.40052071  0.76155533  0.05593937    -0.78100
O1159       O  0.30573573  0.76002562  0.08464940    -0.78200
C1160       C  0.27751533  0.75351415  0.06187953     1.02400
Cr1161     Cr  0.27620441  0.81832970  0.05092985     1.93700
Cr1162     Cr  0.38594530  0.83410686  0.03091459     1.93200
Cr1163     Cr  0.36475578  0.78890788  0.08576511     1.39100
O1164       O  0.34258163  0.81348431  0.05529335    -1.23300
O1165       O  0.25983035  0.87636687  0.34298185    -0.85600
O1166       O  0.22902829  0.82715718  0.30764986    -0.82600
C1167       C  0.19944765  0.81017539  0.29228992     0.97900
O1168       O  0.16276754  0.82134703  0.27673476    -0.82600
O1169       O  0.08940630  0.84253054  0.31658811    -0.85300
C1170       C  0.07420497  0.85685395  0.34030350     1.02400
O1171       O  0.09020707  0.88348699  0.34624784    -0.78000
O1172       O  0.18741077  0.87468450  0.36683830    -0.78200
C1173       C  0.23444416  0.86898894  0.36675377     1.02400
O1174       O  0.25145757  0.91587829  0.28929264    -0.85600
O1175       O  0.23462601  0.86379316  0.25330787    -0.82600
C1176       C  0.20177308  0.86921315  0.23272923     0.97900
O1177       O  0.15720836  0.87714776  0.24033774    -0.82600
O1178       O  0.07930526  0.89943185  0.27964876    -0.85300
C1179       C  0.08327361  0.92722279  0.28922638     1.02400
O1180       O  0.11870473  0.93405559  0.30793149    -0.78100
O1181       O  0.21607334  0.93066224  0.33281477    -0.78200
C1182       C  0.24489744  0.93623662  0.30992293     1.02400
Cr1183     Cr  0.23816603  0.87168661  0.29868600     1.93700
Cr1184     Cr  0.12582547  0.86186266  0.28033589     1.93200
Cr1185     Cr  0.15487219  0.90373583  0.33585718     1.39100
O1186       O  0.17250184  0.87934263  0.30446183    -1.23300
O1187       O  0.75388869  0.87646311  0.43885663    -0.85600
O1188       O  0.79042118  0.82641793  0.47233953    -0.82600
C1189       C  0.82023976  0.80929825  0.48788763     0.97900
O1190       O  0.85670069  0.82057364  0.50320742    -0.82600
O1191       O  0.92383775  0.84385959  0.46104504    -0.85300
C1192       C  0.93714138  0.85964387  0.43762092     1.02400
O1193       O  0.92302667  0.88744219  0.43459824    -0.78000
O1194       O  0.82603268  0.87855508  0.41408074    -0.78200
C1195       C  0.77929811  0.87256529  0.41419895     1.02400
O1196       O  0.76150541  0.91331784  0.49435618    -0.85600
O1197       O  0.78036683  0.86028038  0.02514895    -0.82600
C1198       C  0.81370280  0.86520354  0.04549459     0.97900
O1199       O  0.85659834  0.87565514  0.03739526    -0.82600
O1200       O  0.93088330  0.90149933  0.99703782    -0.85300
C1201       C  0.92794574  0.92806216  0.49092901     1.02400
O1202       O  0.88943668  0.93514482  0.47490368    -0.78100
O1203       O  0.79322316  0.93110001  0.45042290    -0.78200
C1204       C  0.76589930  0.93488991  0.47440167     1.02400
Cr1205     Cr  0.77795987  0.87002602  0.48304128     1.93700
Cr1206     Cr  0.89149512  0.86169881  0.49881740     1.93200
Cr1207     Cr  0.85672016  0.90602747  0.44587339     1.39100
O1208       O  0.84229393  0.87948541  0.47638552    -1.23300
O1209       O  0.18246491  0.55727446  0.11654025    -0.85600
O1210       O  0.08534739  0.55389594  0.09570491    -0.82600
C1211       C  0.06845131  0.58084013  0.09094642     0.97900
O1212       O  0.08262311  0.59710580  0.06814247    -0.82600
O1213       O  0.15916454  0.62363335  0.03570156    -0.85300
C1214       C  0.19318604  0.63108164  0.05530091     1.02400
O1215       O  0.21845323  0.61061240  0.06956763    -0.78000
O1216       O  0.25466767  0.55586343  0.09308631    -0.78200
C1217       C  0.22968592  0.56163395  0.11732119     1.02400
O1218       O  0.20917547  0.50693609  0.07306747    -0.85600
O1219       O  0.11132415  0.50828542  0.05141673    -0.82600
C1220       C  0.07678875  0.51771088  0.03314745     0.97900
O1221       O  0.07453353  0.54620334  0.02484769    -0.82600
O1222       O  0.15549750  0.57354923  0.99089163    -0.85300
C1223       C  0.19887337  0.58490336  0.48588003     1.02400
O1224       O  0.22869743  0.58905988  0.00779225    -0.78100
O1225       O  0.24554056  0.52998025  0.03251344    -0.78200
C1226       C  0.23683782  0.50601603  0.04877302     1.02400
Cr1227     Cr  0.14874566  0.53359910  0.08216562     1.93700
Cr1228     Cr  0.12130259  0.58308615  0.03148456     1.93200
Cr1229     Cr  0.23170752  0.57060355  0.05074370     1.39100
O1230       O  0.16639213  0.56185014  0.05411897    -1.23300
O1231       O  0.82355790  0.56416453  0.16681355    -0.85600
O1232       O  0.92084473  0.55719106  0.18851501    -0.82600
C1233       C  0.93393305  0.58519100  0.18959050     0.97900
O1234       O  0.91905280  0.60234604  0.21131309    -0.82600
O1235       O  0.84983358  0.62664492  0.25218999    -0.85300
C1236       C  0.81251150  0.63613330  0.23595460     1.02400
O1237       O  0.78678293  0.61749404  0.22030941    -0.78000
O1238       O  0.75115450  0.56647202  0.19100131    -0.78200
C1239       C  0.77672287  0.57038721  0.16626941     1.02400
O1240       O  0.79276817  0.51299574  0.20728507    -0.85600
O1241       O  0.89001117  0.51138200  0.23207496    -0.82600
C1242       C  0.92849246  0.51979329  0.24740049     0.97900
O1243       O  0.93559788  0.54860447  0.25230306    -0.82600
O1244       O  0.86042230  0.57289422  0.29193429    -0.85300
C1245       C  0.81742028  0.58305654  0.29994572     1.02400
O1246       O  0.78326972  0.58742035  0.27963384    -0.78100
O1247       O  0.75967073  0.53271212  0.24963295    -0.78200
C1248       C  0.76418159  0.51051023  0.23098874     1.02400
Cr1249     Cr  0.85541516  0.53840724  0.20079173     1.93700
Cr1250     Cr  0.88785005  0.58584110  0.25028918     1.93200
Cr1251     Cr  0.77512922  0.57513113  0.23494911     1.39100
O1252       O  0.83974873  0.56606557  0.22925524    -1.23300
O1253       O  0.32097110  0.63017905  0.36269003    -0.85600
O1254       O  0.41826409  0.63683031  0.34448691    -0.82600
C1255       C  0.43697281  0.61052963  0.33927939     0.97900
O1256       O  0.42568512  0.59577555  0.31497054    -0.82600
O1257       O  0.35406735  0.57046527  0.27666751    -0.85300
C1258       C  0.31946764  0.55935481  0.29398028     1.02400
O1259       O  0.28938810  0.57682197  0.30857749    -0.78000
O1260       O  0.24920913  0.62745403  0.33845061    -0.78200
C1261       C  0.27433384  0.62398924  0.36316085     1.02400
O1262       O  0.29268548  0.68238602  0.32290613    -0.85600
O1263       O  0.39125053  0.68536226  0.30187327    -0.82600
C1264       C  0.42733378  0.67825816  0.28385589     0.97900
O1265       O  0.43239231  0.65042197  0.27471732    -0.82600
O1266       O  0.35534454  0.62462625  0.23684168    -0.85300
C1267       C  0.31155344  0.61486956  0.22979393     1.02400
O1268       O  0.28072608  0.60759184  0.25093590    -0.78100
O1269       O  0.25828795  0.66205091  0.28103360    -0.78200
C1270       C  0.26593718  0.68492095  0.29849939     1.02400
Cr1271     Cr  0.35434708  0.65653400  0.33047043     1.93700
Cr1272     Cr  0.38802261  0.61211346  0.27763480     1.93200
Cr1273     Cr  0.27495882  0.61952016  0.29516734     1.39100
O1274       O  0.33969992  0.62973555  0.30068974    -1.23300
O1275       O  0.69956694  0.63790521  0.41584869    -0.85600
O1276       O  0.60057131  0.64087767  0.43166136    -0.82600
C1277       C  0.58227853  0.61407242  0.43461111     0.97900
O1278       O  0.59145342  0.59766804  0.45862962    -0.82600
O1279       O  0.66025821  0.56959713  0.49796589    -0.85300
C1280       C  0.69565341  0.55947268  0.48090178     1.02400
O1281       O  0.72689047  0.57759456  0.46786543    -0.78000
O1282       O  0.76878284  0.63081913  0.44238829    -0.78200
C1283       C  0.74581080  0.63108084  0.41672683     1.02400
O1284       O  0.72232218  0.68568693  0.46055427    -0.85600
O1285       O  0.62227154  0.68550076  0.47833912    -0.82600
C1286       C  0.58674308  0.67679467  0.49611954     0.97900
O1287       O  0.57571546  0.64770537  0.00136148    -0.82600
O1288       O  0.65422865  0.62298578  0.03884582    -0.85300
C1289       C  0.69859953  0.61439833  0.04648693     1.02400
O1290       O  0.73021712  0.60789842  0.02556068    -0.78100
O1291       O  0.75676193  0.66098823  0.50067234    -0.78200
C1292       C  0.74987782  0.68545584  0.48473580     1.02400
Cr1293     Cr  0.66246900  0.66000251  0.44912620     1.93700
Cr1294     Cr  0.62588050  0.61096222  0.49808514     1.93200
Cr1295     Cr  0.74008587  0.61950458  0.48414543     1.39100
O1296       O  0.67565242  0.63050786  0.47743464    -1.23300
C1297       C  0.52543389  0.60163272  0.35426282    -0.06000
C1298       C  0.47432328  0.59839948  0.36205226    -0.00100
C1299       C  0.46078329  0.59266485  0.39366366    -0.08600
C1300       C  0.49788762  0.59567186  0.41706753    -0.06000
C1301       C  0.54816683  0.60296206  0.40949438    -0.00100
C1302       C  0.56290041  0.60356536  0.37749944    -0.08500
C1303       C  0.61719893  0.60879487  0.36750821     0.61800
H1304       H  0.53534768  0.60579531  0.33000030     0.12500
H1305       H  0.48681148  0.59412560  0.44143273     0.12500
C1306       C  0.40721427  0.58505610  0.40371945     0.62100
F1307       F  0.62504973  0.60016019  0.33680946    -0.23100
F1308       F  0.64952774  0.59133701  0.38602747    -0.20400
F1309       F  0.62851545  0.63987618  0.37005544    -0.20100
F1310       F  0.37704687  0.57668970  0.37878719    -0.20200
F1311       F  0.38626160  0.61053783  0.41818551    -0.20500
F1312       F  0.40795831  0.56040779  0.42469707    -0.23200
C1313       C  0.79449924  0.59167878  0.38769214    -0.06000
C1314       C  0.77238449  0.62133153  0.38802129    -0.00100
C1315       C  0.77327735  0.63983216  0.36059927    -0.08600
C1316       C  0.79032820  0.62636152  0.33276649    -0.06000
C1317       C  0.80780764  0.59552745  0.33163479    -0.00100
C1318       C  0.81201616  0.57818146  0.35982201    -0.08500
C1319       C  0.83209714  0.54527316  0.36031415     0.61800
H1320       H  0.79586664  0.57837085  0.40970376     0.12500
H1321       H  0.78943823  0.63999147  0.31106179     0.12500
C1322       C  0.75905275  0.67399374  0.36114414     0.62100
F1323       F  0.83062607  0.53218774  0.39001317    -0.23100
F1324       F  0.88179503  0.54490228  0.35006687    -0.20400
F1325       F  0.80284015  0.52727508  0.34102655    -0.20100
F1326       F  0.78786058  0.68880464  0.38344430    -0.20200
F1327       F  0.70838805  0.67762566  0.36828057    -0.20500
F1328       F  0.76786422  0.68842509  0.33259998    -0.23200
C1329       C  0.77937730  0.60600283  0.12008006    -0.06000
C1330       C  0.75255527  0.58323487  0.13701660    -0.00100
C1331       C  0.70417959  0.57394847  0.12572552    -0.08600
C1332       C  0.68597585  0.58655185  0.09712994    -0.06000
C1333       C  0.71396087  0.60823800  0.07961293    -0.00100
C1334       C  0.76072179  0.61903003  0.09188954    -0.08500
C1335       C  0.79006540  0.64508109  0.07594103     0.61800
H1336       H  0.81538767  0.61366503  0.12925564     0.12500
H1337       H  0.65065682  0.57840627  0.08739445     0.12500
C1338       C  0.67289140  0.54962455  0.14273326     0.62100
F1339       F  0.83059708  0.65479337  0.09387148    -0.20700
F1340       F  0.75827567  0.67027029  0.07114194    -0.20400
F1341       F  0.80912738  0.63545455  0.04758769    -0.20100
F1342       F  0.65795737  0.56064596  0.17151453    -0.20200
F1343       F  0.70140424  0.52294570  0.14674311    -0.20500
F1344       F  0.62956530  0.54196982  0.12630567    -0.23200
C1345       C  0.22846003  0.60082733  0.15923298    -0.06000
C1346       C  0.25447537  0.57631220  0.14494675    -0.00100
C1347       C  0.30348322  0.56808835  0.15635698    -0.08600
C1348       C  0.32370603  0.58407869  0.18212186    -0.06000
C1349       C  0.29629811  0.60730045  0.19736135    -0.00100
C1350       C  0.24851174  0.61655017  0.18511848    -0.08500
C1351       C  0.21903130  0.64334550  0.19902821     0.61800
H1352       H  0.19184757  0.60760718  0.14994854     0.12500
H1353       H  0.35986258  0.57713936  0.19192368     0.12500
C1354       C  0.33410267  0.54210268  0.14216273     0.62100
F1355       F  0.17922451  0.65258708  0.17997198    -0.23100
F1356       F  0.25084757  0.66846410  0.20261117    -0.20400
F1357       F  0.19923683  0.63485267  0.22774751    -0.20100
F1358       F  0.35086628  0.55159816  0.11307403    -0.20200
F1359       F  0.30459596  0.51575130  0.13965794    -0.20500
F1360       F  0.37621871  0.53447586  0.16000832    -0.23200
C1361       C  0.27239857  0.62619925  0.42023080    -0.06000
C1362       C  0.25002043  0.61449973  0.39336637    -0.00100
C1363       C  0.20772015  0.59419322  0.39665747    -0.08600
C1364       C  0.19196422  0.58496456  0.42709288    -0.06000
C1365       C  0.21609089  0.59590277  0.45410321    -0.00100
C1366       C  0.25629663  0.61793865  0.45030021    -0.08500
C1367       C  0.28036417  0.63506358  0.47732858     0.61800
H1368       H  0.30296041  0.64270504  0.41737371     0.12500
H1369       H  0.16075503  0.56891499  0.43001793     0.12500
C1370       C  0.17948298  0.58202832  0.36850630     0.62100
F1371       F  0.31242466  0.65866154  0.46760050    -0.23100
F1372       F  0.29629901  0.62840476  0.99473138    -0.20400
F1373       F  0.22070189  0.65342191  0.99186050    -0.20100
F1374       F  0.21252177  0.56623574  0.34933219    -0.20200
F1375       F  0.15783502  0.60650870  0.35213014    -0.20500
F1376       F  0.14101846  0.56183435  0.37699962    -0.23200
C1377       C  0.05142009  0.59974614  0.14326003    -0.06000
C1378       C  0.03243183  0.59310392  0.11352990    -0.00100
C1379       C  0.97972479  0.59190071  0.10825080    -0.08600
C1380       C  0.94734255  0.59421521  0.13408039    -0.06000
C1381       C  0.96673017  0.59665765  0.16448226    -0.00100
C1382       C  0.01912287  0.60127786  0.16922455    -0.08500
C1383       C  0.04102446  0.60519800  0.20166853     0.61800
H1384       H  0.09213692  0.60085144  0.14638733     0.12500
H1385       H  0.90695460  0.59081148  0.13113642     0.12500
C1386       C  0.95830822  0.58550565  0.07607097     0.62100
F1387       F  0.09302231  0.60955182  0.20085940    -0.23100
F1388       F  0.03119949  0.57909184  0.21969610    -0.20400
F1389       F  0.01921471  0.63079446  0.21553765    -0.20100
F1390       F  0.97358654  0.55643117  0.06638389    -0.20200
F1391       F  0.97571419  0.60760208  0.05503901    -0.20500
F1392       F  0.90580346  0.58642619  0.07591233    -0.23200
C1393       C  0.72114728  0.97933136  0.45041450    -0.06000
C1394       C  0.73900746  0.96484521  0.47784118    -0.00100
C1395       C  0.73623579  0.98089452  0.50654164    -0.08600
C1396       C  0.71683695  0.51069233  0.50742297    -0.06000
C1397       C  0.70417427  0.52596063  0.47947648    -0.00100
C1398       C  0.70362115  0.01004812  0.45027092    -0.08500
C1399       C  0.68432226  0.02478877  0.42026638     0.61800
H1400       H  0.72276447  0.96673067  0.42873523     0.12500
H1401       H  0.71597696  0.52381244  0.52887340     0.12500
C1402       C  0.75447513  0.96641935  0.53686232     0.62100
F1403       F  0.68058663  0.00350789  0.39639822    -0.23100
F1404       F  0.71399468  0.54854973  0.41234558    -0.20400
F1405       F  0.63297843  0.03799542  0.92403947    -0.20100
F1406       F  0.75280088  0.98710856  0.56136789    -0.20200
F1407       F  0.80416774  0.95666889  0.53342447    -0.20500
F1408       F  0.72499774  0.43861760  0.54437104    -0.23200
C1409       C  0.82238557  0.72135350  0.48345523    -0.06000
C1410       C  0.77293849  0.71492094  0.49380358    -0.00100
C1411       C  0.74215089  0.73917649  0.50530658    -0.08600
C1412       C  0.75969792  0.76957238  0.50302109    -0.06000
C1413       C  0.80783633  0.77632321  0.49123269    -0.00100
C1414       C  0.84076399  0.75203802  0.48223552    -0.08500
C1415       C  0.89336731  0.75879515  0.46960399     0.61800
H1416       H  0.84514003  0.70248416  0.47447545     0.12500
H1417       H  0.73520051  0.78843835  0.51029938     0.12500
C1418       C  0.68929813  0.73434910  0.51819456     0.62100
F1419       F  0.91796687  0.73205118  0.46023605    -0.23100
F1420       F  0.92235279  0.77248408  0.49251606    -0.20400
F1421       F  0.88994997  0.77866773  0.44409084    -0.20100
F1422       F  0.68121288  0.70387718  0.52700655    -0.20200
F1423       F  0.65422533  0.74319064  0.49579483    -0.20500
F1424       F  0.68214791  0.75238228  0.54437284    -0.23200
C1425       C  0.98405314  0.95043161  0.02801151    -0.06000
C1426       C  0.96106294  0.95412576  0.99865437    -0.00100
C1427       C  0.97458940  0.98020614  0.48314267    -0.08600
C1428       C  0.01323254  0.00046673  0.49325067    -0.06000
C1429       C  0.03689574  0.99658511  0.01996745    -0.00100
C1430       C  0.02088541  0.97123736  0.03928016    -0.08500
C1431       C  0.03509515  0.46580475  0.07484480     0.61800
H1432       H  0.97258416  0.93086757  0.04236500     0.12500
H1433       H  0.02221481  0.02096547  0.47957675     0.12500
C1434       C  0.94541510  0.98832674  0.45352790     0.62100
F1435       F  0.00555962  0.44405832  0.09040193    -0.23100
F1436       F  0.03071845  0.49343688  0.09075842    -0.20400
F1437       F  0.08478724  0.45554355  0.07582591    -0.20100
F1438       F  0.89495646  0.99346507  0.46073334    -0.20200
F1439       F  0.94934716  0.96438951  0.43239852    -0.20500
F1440       F  0.96364270  0.01497291  0.43914580    -0.23200
C1441       C  0.29121726  0.97511850  0.27805711    -0.06000
C1442       C  0.27073416  0.96675186  0.30731883    -0.00100
C1443       C  0.27424720  0.98805819  0.33250407    -0.08600
C1444       C  0.29894549  0.51434371  0.32645130    -0.06000
C1445       C  0.31209924  0.52561382  0.29683745    -0.00100
C1446       C  0.31122998  0.00477486  0.27217368    -0.08500
C1447       C  0.33106705  0.01286823  0.23984545     0.61800
H1448       H  0.28958907  0.95861220  0.25923520     0.12500
H1449       H  0.30091651  0.53013570  0.34593507     0.12500
C1450       C  0.25616168  0.98089927  0.36561210     0.62100
F1451       F  0.32739102  0.98819700  0.21953157    -0.23100
F1452       F  0.37153844  0.52689828  0.23578037    -0.20400
F1453       F  0.28950400  0.54162243  0.23092103    -0.20100
F1454       F  0.27635437  0.95308472  0.37595551    -0.20200
F1455       F  0.20379840  0.97950821  0.36634169    -0.20500
F1456       F  0.27442030  0.49721442  0.38570355    -0.23200
C1457       C  0.24424727  0.76647118  0.26858295    -0.06000
C1458       C  0.20982021  0.77688702  0.29107527    -0.00100
C1459       C  0.18889972  0.75596286  0.31305734    -0.08600
C1460       C  0.20572771  0.72509717  0.31302088    -0.06000
C1461       C  0.24257759  0.71500070  0.29178124    -0.00100
C1462       C  0.26171046  0.73571593  0.26865076    -0.08500
C1463       C  0.30178039  0.72754869  0.24450002     0.61800
H1464       H  0.25936998  0.78292079  0.25163212     0.12500
H1465       H  0.19199262  0.70887348  0.33057507     0.12500
C1466       C  0.15005760  0.76653919  0.33680983     0.62100
F1467       F  0.28142625  0.73150474  0.21495241    -0.23100
F1468       F  0.31959942  0.69749940  0.24709323    -0.20400
F1469       F  0.34270355  0.74730302  0.24751279    -0.20100
F1470       F  0.10863385  0.77908817  0.32143659    -0.20200
F1471       F  0.17115536  0.78873129  0.35589039    -0.20500
F1472       F  0.13317860  0.74223625  0.35544892    -0.23200
C1473       C  0.99990630  0.94052939  0.26378333    -0.06000
C1474       C  0.04405301  0.95125793  0.27876391    -0.00100
C1475       C  0.04825341  0.98389628  0.28337355    -0.08600
C1476       C  0.01590155  0.50677729  0.26722941    -0.06000
C1477       C  0.96534336  0.99324772  0.25675561    -0.00100
C1478       C  0.96045366  0.96043778  0.25312360    -0.08500
C1479       C  0.91427886  0.94576649  0.23798103     0.61800
H1480       H  0.99626271  0.91582194  0.26036716     0.12500
H1481       H  0.02258832  0.53152593  0.26682559     0.12500
C1482       C  0.09342240  0.99800024  0.30006293     0.62100
F1483       F  0.91606812  0.91365467  0.23916000    -0.23100
F1484       F  0.91167465  0.95463973  0.20688418    -0.20400
F1485       F  0.87065028  0.95480091  0.25335609    -0.20100
F1486       F  0.13801060  0.98944708  0.28540144    -0.20200
F1487       F  0.09415264  0.98797902  0.33087454    -0.20500
F1488       F  0.10719620  0.53215612  0.28245925    -0.23200
C1489       C  0.95100719  0.85085859  0.38206718    -0.06000
C1490       C  0.96887979  0.84657372  0.41265323    -0.00100
C1491       C  0.01927992  0.83652196  0.41771893    -0.08600
C1492       C  0.05228520  0.83527538  0.39182847    -0.06000
C1493       C  0.03587714  0.84407292  0.36174514    -0.00100
C1494       C  0.98402291  0.85034191  0.35642193    -0.08500
C1495       C  0.96499089  0.86019178  0.32441857     0.61800
H1496       H  0.91188192  0.85793458  0.37875989     0.12500
H1497       H  0.09227707  0.83053644  0.39535699     0.12500
C1498       C  0.03867080  0.82937237  0.45036728     0.62100
F1499       F  0.91275228  0.86347074  0.32380681    -0.23100
F1500       F  0.97856966  0.83821548  0.30264782    -0.20400
F1501       F  0.98617782  0.88838819  0.31620564    -0.20100
F1502       F  0.08931076  0.82092003  0.45019480    -0.20200
F1503       F  0.01120416  0.80506881  0.46312623    -0.20500
F1504       F  0.03338370  0.85513391  0.46909081    -0.23200
C1505       C  0.20274472  0.71922742  0.05766208    -0.06000
C1506       C  0.25568750  0.72225300  0.06018295    -0.00100
C1507       C  0.28671645  0.69542447  0.06203934    -0.08600
C1508       C  0.26354889  0.66653966  0.06129634    -0.06000
C1509       C  0.21097324  0.66322674  0.05823552    -0.00100
C1510       C  0.17954462  0.68982102  0.05676734    -0.08500
C1511       C  0.12227274  0.68715201  0.05528475     0.61800
H1512       H  0.17977933  0.74006244  0.05664141     0.12500
H1513       H  0.28708125  0.64593617  0.06179273     0.12500
C1514       C  0.34428468  0.69671546  0.06225212     0.62100
F1515       F  0.09880374  0.71565022  0.05888200    -0.23100
F1516       F  0.10534395  0.66760524  0.07891702    -0.20400
F1517       F  0.10792716  0.67541832  0.02671127    -0.20100
F1518       F  0.36142319  0.71194429  0.08841340    -0.20200
F1519       F  0.36035849  0.71168702  0.03536855    -0.20500
F1520       F  0.36632349  0.66751184  0.06268777    -0.23200
C1521       C  0.32194486  0.93742329  0.03468961    -0.06000
C1522       C  0.28631207  0.91357160  0.03924461    -0.00100
C1523       C  0.23377972  0.92091296  0.04005149    -0.08600
C1524       C  0.21947287  0.95210476  0.03955324    -0.06000
C1525       C  0.25518933  0.97594197  0.03785383    -0.00100
C1526       C  0.30712885  0.96882390  0.03387650    -0.08500
C1527       C  0.34893153  0.49452348  0.04754368     0.61800
H1528       H  0.36176072  0.93132277  0.03294041     0.12500
H1529       H  0.17974467  0.95830864  0.04180470     0.12500
C1530       C  0.19244584  0.89635639  0.04124398     0.62100
F1531       F  0.39806208  0.48312220  0.04759215    -0.23100
F1532       F  0.33929173  0.50702750  0.07638227    -0.20400
F1533       F  0.34557581  0.51749478  0.02485316    -0.20100
F1534       F  0.19148651  0.88220243  0.07038428    -0.20200
F1535       F  0.20114612  0.87442941  0.01852844    -0.20500
F1536       F  0.14486040  0.90894362  0.03579581    -0.23200
C1537       C  0.52793410  0.72459827  0.98531466    -0.06000
C1538       C  0.54168743  0.69979658  0.00535055    -0.00100
C1539       C  0.52100556  0.69914127  0.03601648    -0.08600
C1540       C  0.48634735  0.72255001  0.04495867    -0.06000
C1541       C  0.47220483  0.74718870  0.02487777    -0.00100
C1542       C  0.49384308  0.74832023  0.99440157    -0.08500
C1543       C  0.48016614  0.77377864  0.97102166     0.61800
H1544       H  0.54410163  0.72515978  0.96205875     0.12500
H1545       H  0.47015399  0.72189150  0.06820454     0.12500
C1546       C  0.53646530  0.67450558  0.05977191     0.62100
F1547       F  0.49729107  0.80208823  0.98153316    -0.23100
F1548       F  0.42815935  0.77489860  0.96711088    -0.20400
F1549       F  0.48834192  0.75724949  0.43959300    -0.20100
F1550       F  0.58876470  0.67278411  0.06152521    -0.20200
F1551       F  0.53782675  0.65117626  0.55944157    -0.20500
F1552       F  0.51843651  0.68105658  0.08936606    -0.23200
C1553       C  0.27400235  0.86289357  0.15636691    -0.06000
C1554       C  0.26037735  0.83279760  0.14736436    -0.00100
C1555       C  0.22285578  0.81657132  0.16466265    -0.08600
C1556       C  0.20094280  0.83087033  0.19089684    -0.06000
C1557       C  0.21538126  0.86062267  0.20038735    -0.00100
C1558       C  0.25207053  0.87712973  0.18271300    -0.08500
C1559       C  0.26796409  0.90955782  0.19184173     0.61800
H1560       H  0.30236576  0.87508445  0.14269287     0.12500
H1561       H  0.17396831  0.81823575  0.20522663     0.12500
C1562       C  0.20750245  0.78380427  0.15622638     0.62100
F1563       F  0.29886107  0.92317608  0.16942893    -0.23100
F1564       F  0.29422732  0.90843544  0.21975659    -0.20400
F1565       F  0.22541441  0.92805024  0.19528213    -0.20100
F1566       F  0.25013699  0.76528161  0.15331844    -0.20200
F1567       F  0.18135742  0.78429612  0.12825569    -0.20500
F1568       F  0.17654031  0.77051206  0.17879345    -0.23200
C1569       C  0.33126209  0.84306703  0.42916387    -0.06000
C1570       C  0.30005264  0.82596591  0.44939947    -0.00100
C1571       C  0.24955394  0.81956913  0.44019696    -0.08600
C1572       C  0.22968429  0.83451739  0.41353831    -0.06000
C1573       C  0.25970093  0.85355383  0.39417191    -0.00100
C1574       C  0.31249788  0.85639340  0.40117468    -0.08500
C1575       C  0.34925831  0.87372852  0.37995288     0.61800
H1576       H  0.36996360  0.84725590  0.43629320     0.12500
H1577       H  0.19018571  0.83103513  0.40764659     0.12500
C1578       C  0.21533706  0.79789952  0.45871702     0.62100
F1579       F  0.39725610  0.87567827  0.39284980    -0.23100
F1580       F  0.33234355  0.90361967  0.37460056    -0.20400
F1581       F  0.35363729  0.85838328  0.35187462    -0.20100
F1582       F  0.18390213  0.81833751  0.98442372    -0.20200
F1583       F  0.23174842  0.77633732  0.97325390    -0.20500
F1584       F  0.18292941  0.78232770  0.43891919    -0.23200
C1585       C  0.83314126  0.69222489  0.23520749    -0.06000
C1586       C  0.79623365  0.66878132  0.23661932    -0.00100
C1587       C  0.74399704  0.67684036  0.23853525    -0.08600
C1588       C  0.73076149  0.70812591  0.23776197    -0.06000
C1589       C  0.76709468  0.73137576  0.23461196    -0.00100
C1590       C  0.81924360  0.72379590  0.23377579    -0.08500
C1591       C  0.85946025  0.74870287  0.23065838     0.61800
H1592       H  0.87273961  0.68556918  0.23420969     0.12500
H1593       H  0.69115319  0.71481770  0.23822879     0.12500
C1594       C  0.70163287  0.65298838  0.24114110     0.62100
F1595       F  0.90751895  0.73609054  0.22744522    -0.23100
F1596       F  0.85904916  0.76687605  0.25704682    -0.20400
F1597       F  0.84988090  0.76718323  0.20469468    -0.20100
F1598       F  0.71204003  0.63212044  0.26500468    -0.20200
F1599       F  0.69659495  0.63741620  0.21324258    -0.20500
F1600       F  0.65526499  0.66662262  0.24769970    -0.23200
C1601       C  0.71347740  0.96757782  0.20494270    -0.06000
C1602       C  0.73322618  0.98088515  0.23210355    -0.00100
C1603       C  0.72964582  0.96491275  0.26108649    -0.08600
C1604       C  0.71147270  0.93438277  0.26108035    -0.06000
C1605       C  0.69717279  0.92012253  0.23320857    -0.00100
C1606       C  0.69492304  0.93727481  0.20503871    -0.08500
C1607       C  0.67350581  0.92358682  0.17531242     0.61800
H1608       H  0.71998122  0.48003216  0.18584214     0.12500
H1609       H  0.71130872  0.92073173  0.28248227     0.12500
C1610       C  0.74763203  0.97914933  0.29137097     0.62100
F1611       F  0.62711904  0.90995060  0.18151026    -0.23100
F1612       F  0.70633968  0.90149564  0.16377440    -0.20400
F1613       F  0.66621533  0.94607931  0.15239439    -0.20100
F1614       F  0.71962807  0.00557144  0.29749095    -0.20200
F1615       F  0.79839717  0.98673682  0.28892867    -0.20500
F1616       F  0.74197103  0.95902080  0.31654732    -0.23200
C1617       C  0.51933613  0.74798832  0.28162551    -0.06000
C1618       C  0.54260246  0.74470140  0.25226936    -0.00100
C1619       C  0.52531324  0.72044789  0.23259366    -0.08600
C1620       C  0.48798181  0.69953652  0.24389701    -0.06000
C1621       C  0.46517050  0.70257048  0.27344971    -0.00100
C1622       C  0.48080219  0.72774510  0.29253257    -0.08500
C1623       C  0.45799758  0.73324125  0.32463836     0.61800
H1624       H  0.53178560  0.76687554  0.29618103     0.12500
H1625       H  0.47555126  0.68067438  0.22929585     0.12500
C1626       C  0.54375475  0.71742546  0.19911467     0.62100
F1627       F  0.48160025  0.75732717  0.34000847    -0.23100
F1628       F  0.46308417  0.70681451  0.34299868    -0.20400
F1629       F  0.40725068  0.74089798  0.32169098    -0.20100
F1630       F  0.59457150  0.70954386  0.19871061    -0.20200
F1631       F  0.53660380  0.74524999  0.18328834    -0.20500
F1632       F  0.51758142  0.69475566  0.18313848    -0.23200
C1633       C  0.68895012  0.86037632  0.34555930    -0.06000
C1634       C  0.71298500  0.83579103  0.33017335    -0.00100
C1635       C  0.75803319  0.82289396  0.34304510    -0.08600
C1636       C  0.77753673  0.83514865  0.37090205    -0.06000
C1637       C  0.75450230  0.86038480  0.38572254    -0.00100
C1638       C  0.70962424  0.87347606  0.37280884    -0.08500
C1639       C  0.68650662  0.90287158  0.38595450     0.61800
H1640       H  0.65586335  0.87078491  0.33467448     0.12500
H1641       H  0.81202722  0.82561813  0.38093488     0.12500
C1642       C  0.78634508  0.79686599  0.32693202     0.62100
F1643       F  0.64642587  0.91364596  0.36796892    -0.23100
F1644       F  0.72298002  0.92583665  0.38658381    -0.20400
F1645       F  0.66860841  0.89747228  0.41586223    -0.20100
F1646       F  0.80886219  0.80805519  0.29993953    -0.20200
F1647       F  0.75303103  0.77335126  0.31952460    -0.20500
F1648       F  0.82407177  0.78436363  0.34574966    -0.23200
C1649       C  0.77851027  0.82436998  0.07935921    -0.06000
C1650       C  0.80216787  0.85363664  0.07761015    -0.00100
C1651       C  0.80916084  0.87062548  0.10540795    -0.08600
C1652       C  0.78911604  0.85841566  0.13359567    -0.06000
C1653       C  0.76104754  0.83070728  0.13438009    -0.00100
C1654       C  0.75762367  0.81261453  0.10720757    -0.08500
C1655       C  0.73310088  0.78073338  0.10778386     0.61800
H1656       H  0.77501917  0.81100329  0.05818838     0.12500
H1657       H  0.79240542  0.87145761  0.15498527     0.12500
C1658       C  0.83222420  0.90276327  0.10510802     0.62100
F1659       F  0.73973018  0.76543149  0.07983411    -0.23100
F1660       F  0.68159622  0.78344664  0.11316547    -0.20400
F1661       F  0.75472110  0.76268597  0.13117691    -0.20100
F1662       F  0.79903062  0.92308610  0.09056623    -0.20200
F1663       F  0.87799836  0.90288238  0.08940284    -0.20500
F1664       F  0.84115263  0.91324198  0.13505729    -0.23200
C1665       C  0.45579510  0.85677396  0.14320806    -0.06000
C1666       C  0.47402847  0.85243043  0.11266476    -0.00100
C1667       C  0.52672261  0.85014319  0.10742168    -0.08600
C1668       C  0.55944716  0.84956492  0.13329068    -0.06000
C1669       C  0.54065926  0.84972736  0.16401120    -0.00100
C1670       C  0.48842942  0.85500712  0.16926397    -0.08500
C1671       C  0.46698321  0.85601190  0.20214082     0.61800
H1672       H  0.41514084  0.85804144  0.14671278     0.12500
H1673       H  0.59963312  0.84553079  0.12980153     0.12500
C1674       C  0.54750482  0.84461481  0.07490397     0.62100
F1675       F  0.41499555  0.86062939  0.20211609    -0.23100
F1676       F  0.48909786  0.88008588  0.21823890    -0.20400
F1677       F  0.47700909  0.82833861  0.21764025    -0.20100
F1678       F  0.52894927  0.86702612  0.05454100    -0.20200
F1679       F  0.53272166  0.81565825  0.06476581    -0.20500
F1680       F  0.59994276  0.84584825  0.07424696    -0.23200
O1681       O  0.76189370  0.81660233  0.68968353    -0.85600
O1682       O  0.72361846  0.86785561  0.71910854    -0.82600
C1683       C  0.69349292  0.88549614  0.73343051     0.97900
O1684       O  0.65841511  0.87468796  0.75049704    -0.82600
O1685       O  0.59053495  0.85211286  0.70874910    -0.85300
C1686       C  0.57901987  0.83719436  0.68465481     1.02400
O1687       O  0.59265707  0.80938978  0.68165863    -0.78000
O1688       O  0.69129535  0.81408773  0.66350547    -0.78200
C1689       C  0.73810040  0.81978154  0.66441946     1.02400
O1690       O  0.75028281  0.78145386  0.74627635    -0.85600
O1691       O  0.72660901  0.83577506  0.77684473    -0.82600
C1692       C  0.69382011  0.82866347  0.79698160     0.97900
O1693       O  0.64994908  0.82009850  0.78869916    -0.82600
O1694       O  0.57391674  0.79718470  0.74853767    -0.85300
C1695       C  0.57912510  0.76885073  0.74104812     1.02400
O1696       O  0.61665469  0.76065522  0.72460951    -0.78100
O1697       O  0.71606302  0.76211835  0.70387431    -0.78200
C1698       C  0.74253971  0.75893234  0.72832531     1.02400
Cr1699     Cr  0.73525082  0.82454392  0.73250942     1.93700
Cr1700     Cr  0.62176487  0.83415334  0.74738297     1.93200
Cr1701     Cr  0.65555839  0.78866181  0.69588324     1.39100
O1702       O  0.67049693  0.81535884  0.72569762    -1.23300
O1703       O  0.26246826  0.81117405  0.59314782    -0.85600
O1704       O  0.28667357  0.86264928  0.55743716    -0.82600
C1705       C  0.31049192  0.88099381  0.53968024     0.97900
O1706       O  0.34892666  0.87203502  0.52433706    -0.82600
O1707       O  0.42799467  0.85506602  0.56329664    -0.85300
C1708       C  0.44619964  0.84135333  0.58690225     1.02400
O1709       O  0.43259360  0.81438449  0.59438707    -0.78000
O1710       O  0.33486158  0.81685005  0.61628259    -0.78200
C1711       C  0.28716625  0.81948050  0.61670473     1.02400
O1712       O  0.27563529  0.77398296  0.53898445    -0.85600
O1713       O  0.28442590  0.82708350  0.50322087    -0.82600
C1714       C  0.31009052  0.82229906  0.98406222     0.97900
O1715       O  0.36215194  0.81623327  0.48961109    -0.82600
O1716       O  0.44397211  0.79901676  0.52735164    -0.85300
C1717       C  0.44279273  0.77116300  0.53730968     1.02400
O1718       O  0.41041200  0.76282515  0.55745214    -0.78100
O1719       O  0.31438230  0.75975561  0.58224313    -0.78200
C1720       C  0.28670188  0.75349852  0.55903611     1.02400
Cr1721     Cr  0.28291870  0.81822032  0.54860733     1.93700
Cr1722     Cr  0.39245009  0.83381813  0.52835117     1.93200
Cr1723     Cr  0.37106179  0.79036833  0.58517444     1.39100
O1724       O  0.34940977  0.81395338  0.55369369    -1.23300
O1725       O  0.25955935  0.87297603  0.84129419    -0.85600
O1726       O  0.22521494  0.82418703  0.80681709    -0.82600
C1727       C  0.19506153  0.80774340  0.79133259     0.97900
O1728       O  0.15934064  0.81955327  0.77543469    -0.82600
O1729       O  0.08856163  0.84326230  0.81541962    -0.85300
C1730       C  0.07371935  0.85912009  0.83819550     1.02400
O1731       O  0.09010436  0.88604801  0.84222411    -0.78000
O1732       O  0.18652873  0.87406063  0.86455030    -0.78200
C1733       C  0.23314833  0.86689665  0.86506341     1.02400
O1734       O  0.25517987  0.91165849  0.78625217    -0.85600
O1735       O  0.23366163  0.85952983  0.75155421    -0.82600
C1736       C  0.20168495  0.86636078  0.73080687     0.97900
O1737       O  0.15728116  0.87485885  0.73820959    -0.82600
O1738       O  0.08132362  0.89958976  0.77732058    -0.85300
C1739       C  0.08845703  0.92763612  0.78533305     1.02400
O1740       O  0.12534491  0.93410781  0.80306052    -0.78100
O1741       O  0.22098394  0.92763107  0.82958999    -0.78200
C1742       C  0.24956005  0.93246047  0.80650134     1.02400
Cr1743     Cr  0.23812317  0.86805176  0.79679215     1.93700
Cr1744     Cr  0.12522378  0.86092961  0.77846610     1.93200
Cr1745     Cr  0.15727716  0.90342533  0.83246485     1.39100
O1746       O  0.17321041  0.87770231  0.80203798    -1.23300
O1747       O  0.74807244  0.87951242  0.93695693    -0.85600
O1748       O  0.78452169  0.82860038  0.96863365    -0.82600
C1749       C  0.81430585  0.81112076  0.98371602     0.97900
O1750       O  0.85130145  0.82182654  0.99905891    -0.82600
O1751       O  0.92048451  0.84637168  0.95852871    -0.85300
C1752       C  0.93374583  0.86223270  0.93511796     1.02400
O1753       O  0.91724704  0.88932338  0.93094027    -0.78000
O1754       O  0.81983458  0.88005864  0.91204143    -0.78200
C1755       C  0.77304988  0.87424478  0.91251094     1.02400
O1756       O  0.75773831  0.91456795  0.99316927    -0.85600
O1757       O  0.78624121  0.85994528  0.52817624    -0.82600
C1758       C  0.82010860  0.86515287  0.54823893     0.97900
O1759       O  0.86290930  0.87550803  0.53982162    -0.82600
O1760       O  0.93650816  0.89980767  0.49831979    -0.85300
C1761       C  0.92392966  0.92967190  0.98859082     1.02400
O1762       O  0.88636608  0.93693937  0.97169627    -0.78100
O1763       O  0.78865576  0.93280626  0.94919031    -0.78200
C1764       C  0.76169271  0.93625051  0.97341139     1.02400
Cr1765     Cr  0.77286748  0.87176012  0.98055998     1.93700
Cr1766     Cr  0.88629604  0.86309893  0.99624200     1.93200
Cr1767     Cr  0.85165714  0.90773423  0.94335473     1.39100
O1768       O  0.83743347  0.88114165  0.97390791    -1.23300
O1769       O  0.18282766  0.56002003  0.61751988    -0.85600
O1770       O  0.08546055  0.55713896  0.59719581    -0.82600
C1771       C  0.07055433  0.58457698  0.59295896     0.97900
O1772       O  0.08582110  0.60063291  0.57023022    -0.82600
O1773       O  0.16255306  0.62512879  0.53586778    -0.85300
C1774       C  0.19824671  0.63223659  0.55446461     1.02400
O1775       O  0.22341620  0.61155115  0.56851987    -0.78000
O1776       O  0.25444348  0.55643806  0.59370308    -0.78200
C1777       C  0.23014404  0.56388563  0.61765220     1.02400
O1778       O  0.20744706  0.50772285  0.57582524    -0.85600
O1779       O  0.11037803  0.51076278  0.55365906    -0.82600
C1780       C  0.07500956  0.52038895  0.53619684     0.97900
O1781       O  0.07320819  0.54892358  0.52769243    -0.82600
O1782       O  0.15449302  0.57506754  0.49150673    -0.85300
C1783       C  0.19835565  0.58552689  0.98547204     1.02400
O1784       O  0.22967522  0.58696786  0.50804634    -0.78100
O1785       O  0.24373853  0.52862588  0.53426113    -0.78200
C1786       C  0.23470853  0.50538071  0.55148121     1.02400
Cr1787     Cr  0.14826894  0.53590066  0.58398427     1.93700
Cr1788     Cr  0.12225421  0.58528623  0.53292179     1.93200
Cr1789     Cr  0.23262663  0.57025902  0.55119520     1.39100
O1790       O  0.16689433  0.56330988  0.55528224    -1.23300
O1791       O  0.82597877  0.56089897  0.66672274    -0.85600
O1792       O  0.92302309  0.55609971  0.68877252    -0.82600
C1793       C  0.93546818  0.58418195  0.69094261     0.97900
O1794       O  0.91961993  0.60051309  0.71302067    -0.82600
O1795       O  0.84672211  0.62358077  0.75193498    -0.85300
C1796       C  0.80956921  0.63252563  0.73509439     1.02400
O1797       O  0.78554931  0.61347610  0.71889679    -0.78000
O1798       O  0.75295750  0.56101138  0.69029766    -0.78200
C1799       C  0.77877700  0.56554394  0.66588012     1.02400
O1800       O  0.79695461  0.50921956  0.70718626    -0.85600
O1801       O  0.89354533  0.50917635  0.73199958    -0.82600
C1802       C  0.93179612  0.51779637  0.74729475     0.97900
O1803       O  0.93662998  0.54655270  0.75372358    -0.82600
O1804       O  0.85751074  0.57013487  0.79213365    -0.85300
C1805       C  0.81417080  0.58062269  0.79905444     1.02400
O1806       O  0.78109775  0.58429243  0.77805848    -0.78100
O1807       O  0.76221059  0.52894398  0.74915216    -0.78200
C1808       C  0.76783717  0.50676667  0.73067717     1.02400
Cr1809     Cr  0.85842483  0.53577566  0.70075883     1.93700
Cr1810     Cr  0.88696977  0.58331985  0.75109497     1.93200
Cr1811     Cr  0.77548724  0.57110969  0.73391970     1.39100
O1812       O  0.84070386  0.56304432  0.72911841    -1.23300
O1813       O  0.31604550  0.63102285  0.86216000    -0.85600
O1814       O  0.41356804  0.63663347  0.84511884    -0.82600
C1815       C  0.43181875  0.61006560  0.84048703     0.97900
O1816       O  0.42193139  0.59530520  0.81592429    -0.82600
O1817       O  0.35382905  0.57005180  0.77484359    -0.85300
C1818       C  0.31946249  0.55819005  0.79178396     1.02400
O1819       O  0.28927064  0.57505338  0.80692062    -0.78000
O1820       O  0.24571315  0.62453422  0.83694096    -0.78200
C1821       C  0.27013415  0.62320583  0.86210487     1.02400
O1822       O  0.28919714  0.68212757  0.82068527    -0.85600
O1823       O  0.38916914  0.68532023  0.80166708    -0.82600
C1824       C  0.42631742  0.67804633  0.78452579     0.97900
O1825       O  0.43206657  0.65006265  0.77612752    -0.82600
O1826       O  0.35642691  0.62537168  0.73693160    -0.85300
C1827       C  0.31305586  0.61559064  0.72911332     1.02400
O1828       O  0.28179896  0.60700374  0.74955436    -0.78100
O1829       O  0.25424169  0.65977469  0.77996795    -0.78200
C1830       C  0.26140640  0.68322327  0.79663928     1.02400
Cr1831     Cr  0.35059501  0.65655337  0.82980258     1.93700
Cr1832     Cr  0.38708360  0.61194526  0.77782154     1.93200
Cr1833     Cr  0.27332213  0.61770249  0.79390162     1.39100
O1834       O  0.33741264  0.62916852  0.80018137    -1.23300
O1835       O  0.69193080  0.63726445  0.91321407    -0.85600
O1836       O  0.59424712  0.63756690  0.92983478    -0.82600
C1837       C  0.57773308  0.61053226  0.93441985     0.97900
O1838       O  0.58840278  0.59555348  0.95913256    -0.82600
O1839       O  0.66125125  0.57055245  0.99800669    -0.85300
C1840       C  0.69702210  0.56085049  0.98088201     1.02400
O1841       O  0.72598768  0.57938169  0.96652854    -0.78000
O1842       O  0.76249082  0.63301458  0.93888214    -0.78200
C1843       C  0.73852521  0.63166265  0.91361593     1.02400
O1844       O  0.71256121  0.68695877  0.95617359    -0.85600
O1845       O  0.61302963  0.68482510  0.97464795    -0.82600
C1846       C  0.57895916  0.67607501  0.99343037     0.97900
O1847       O  0.58062181  0.64834273  0.50265184    -0.82600
O1848       O  0.65510542  0.62055082  0.54031619    -0.85300
C1849       C  0.69859599  0.61076577  0.54827975     1.02400
O1850       O  0.73105358  0.60443184  0.52778994    -0.78100
O1851       O  0.75006048  0.66419129  0.99648204    -0.78200
C1852       C  0.74109123  0.68793477  0.97989158     1.02400
Cr1853     Cr  0.65450367  0.65930726  0.94610464     1.93700
Cr1854     Cr  0.62362360  0.61114123  0.99743273     1.93200
Cr1855     Cr  0.73628613  0.62202893  0.98134264     1.39100
O1856       O  0.67091436  0.63114480  0.97521457    -1.23300
C1857       C  0.51893717  0.59718969  0.85559739    -0.06000
C1858       C  0.46782609  0.59771324  0.86385995    -0.00100
C1859       C  0.45403344  0.59337936  0.89564951    -0.08600
C1860       C  0.49203877  0.59437221  0.91866790    -0.06000
C1861       C  0.54315863  0.59773156  0.91053658    -0.00100
C1862       C  0.55701673  0.59630234  0.87842919    -0.08500
C1863       C  0.61102248  0.59489619  0.86683671     0.61800
H1864       H  0.52935748  0.59950300  0.83116030     0.12500
H1865       H  0.48137104  0.59485865  0.94312390     0.12500
C1866       C  0.39949013  0.59017909  0.90605951     0.62100
F1867       F  0.61584776  0.57120661  0.84545346    -0.23100
F1868       F  0.64481575  0.58914836  0.89068105    -0.20400
F1869       F  0.62307241  0.62258275  0.85217733    -0.20100
F1870       F  0.36979121  0.57783118  0.88267684    -0.20200
F1871       F  0.38086664  0.61894521  0.91426336    -0.20500
F1872       F  0.39638520  0.57045465  0.93173586    -0.23200
C1873       C  0.79252974  0.59368738  0.88627127    -0.06000
C1874       C  0.76441574  0.62147167  0.88490853    -0.00100
C1875       C  0.75878100  0.63736597  0.85606367    -0.08600
C1876       C  0.77758284  0.62324880  0.82906756    -0.06000
C1877       C  0.80243155  0.59426700  0.82991394    -0.00100
C1878       C  0.81194634  0.57971005  0.85909293    -0.08500
C1879       C  0.84026385  0.54915758  0.86146637     0.61800
H1880       H  0.79721551  0.58228147  0.90875100     0.12500
H1881       H  0.77241821  0.63480235  0.80663543     0.12500
C1882       C  0.73530289  0.66964268  0.85381872     0.62100
F1883       F  0.84365388  0.53857206  0.89206191    -0.23100
F1884       F  0.88897492  0.55279867  0.85008416    -0.20400
F1885       F  0.81536690  0.52695514  0.84425628    -0.20100
F1886       F  0.76030610  0.68932077  0.87387325    -0.20200
F1887       F  0.68460355  0.66888351  0.86173398    -0.20500
F1888       F  0.73888451  0.68201683  0.82389365    -0.23200
C1889       C  0.77359619  0.60521267  0.62385809    -0.06000
C1890       C  0.75412395  0.57778426  0.63698051    -0.00100
C1891       C  0.71240791  0.56311770  0.62237259    -0.08600
C1892       C  0.69153822  0.57664933  0.59498849    -0.06000
C1893       C  0.71232989  0.60347508  0.58122786    -0.00100
C1894       C  0.75396594  0.61809325  0.59597461    -0.08500
C1895       C  0.77849649  0.64681160  0.58188895     0.61800
H1896       H  0.80539765  0.61610468  0.63531876     0.12500
H1897       H  0.66113207  0.56511186  0.58280589     0.12500
C1898       C  0.69312037  0.53192699  0.63398464     0.62100
F1899       F  0.81411143  0.65949491  0.60173334    -0.20700
F1900       F  0.74186487  0.66909606  0.57584237    -0.20400
F1901       F  0.80286357  0.63925426  0.55442535    -0.20100
F1902       F  0.67383562  0.53454157  0.66386450    -0.20200
F1903       F  0.73264731  0.51075882  0.63412546    -0.20500
F1904       F  0.65507785  0.52048593  0.61509306    -0.23200
C1905       C  0.22961815  0.60313121  0.65931996    -0.06000
C1906       C  0.25610485  0.57932053  0.64421814    -0.00100
C1907       C  0.30659062  0.57235444  0.65385780    -0.08600
C1908       C  0.32680413  0.58764258  0.68000443    -0.06000
C1909       C  0.29859639  0.60970067  0.69637569    -0.00100
C1910       C  0.25032202  0.61880139  0.68491931    -0.08500
C1911       C  0.22014622  0.64463389  0.70004053     0.61800
H1912       H  0.19209690  0.60926970  0.65111391     0.12500
H1913       H  0.36356264  0.58103840  0.68912209     0.12500
C1914       C  0.33868113  0.54835161  0.63741058     0.62100
F1915       F  0.18222820  0.65562117  0.68044451    -0.23100
F1916       F  0.25176142  0.66920910  0.70675621    -0.20400
F1917       F  0.19784885  0.63390273  0.72728628    -0.20100
F1918       F  0.35095136  0.55933289  0.60790980    -0.20200
F1919       F  0.31221719  0.52079080  0.63530373    -0.20500
F1920       F  0.38354459  0.54223083  0.65310656    -0.23200
C1921       C  0.26138783  0.63084512  0.91852396    -0.06000
C1922       C  0.24552228  0.61440641  0.89235606    -0.00100
C1923       C  0.21011616  0.58979630  0.89652138    -0.08600
C1924       C  0.19489854  0.58145607  0.92720923    -0.06000
C1925       C  0.21335604  0.59689940  0.95358212    -0.00100
C1926       C  0.24578665  0.62304093  0.94891316    -0.08500
C1927       C  0.26268854  0.64392913  0.97530618     0.61800
H1928       H  0.28703955  0.65014176  0.91487872     0.12500
H1929       H  0.16938899  0.56210712  0.93093580     0.12500
C1930       C  0.18997190  0.57142764  0.86921448     0.62100
F1931       F  0.28682521  0.67044109  0.96446421    -0.23100
F1932       F  0.30879634  0.61504598  0.49578207    -0.20400
F1933       F  0.24219436  0.64859684  0.49435190    -0.20100
F1934       F  0.22977442  0.55748420  0.85388402    -0.20200
F1935       F  0.16415036  0.59084801  0.84879579    -0.20500
F1936       F  0.15687728  0.54829310  0.87874242    -0.23200
C1937       C  0.05307658  0.60257392  0.64586070    -0.06000
C1938       C  0.03469202  0.59716302  0.61566061    -0.00100
C1939       C  0.98201507  0.59631328  0.61010868    -0.08600
C1940       C  0.94929245  0.59624672  0.63590996    -0.06000
C1941       C  0.96826778  0.59707254  0.66647410    -0.00100
C1942       C  0.02021697  0.60282366  0.67169591    -0.08500
C1943       C  0.04098126  0.60695409  0.70439664     0.61800
H1944       H  0.09369117  0.60376595  0.64935670     0.12500
H1945       H  0.90899707  0.59257624  0.63255853     0.12500
C1946       C  0.96097588  0.59296193  0.57738655     0.62100
F1947       F  0.09233397  0.61355256  0.70403605    -0.23100
F1948       F  0.03369704  0.58015602  0.72185397    -0.20400
F1949       F  0.01610570  0.63131160  0.71861742    -0.20100
F1950       F  0.97534060  0.56464584  0.56530607    -0.20200
F1951       F  0.97959540  0.61652064  0.55847346    -0.20500
F1952       F  0.90852546  0.59471323  0.57703196    -0.23200
C1953       C  0.71798638  0.98049827  0.94922220    -0.06000
C1954       C  0.73383239  0.96567558  0.97691531    -0.00100
C1955       C  0.72697803  0.98068595  0.00595498    -0.08600
C1956       C  0.73102278  0.51422660  0.00667587    -0.06000
C1957       C  0.70817679  0.52755866  0.98021342    -0.00100
C1958       C  0.70005320  0.01099859  0.94908223    -0.08500
C1959       C  0.68070290  0.02561671  0.91904626     0.61800
H1960       H  0.72136876  0.96831415  0.92734223     0.12500
H1961       H  0.73713353  0.52868161  0.02688743     0.12500
C1962       C  0.73968167  0.96505355  0.03689257     0.62100
F1963       F  0.67699988  0.00419418  0.89528652    -0.23100
F1964       F  0.70542584  0.54589122  0.91216658    -0.20400
F1965       F  0.63672956  0.03733553  0.42525877    -0.20100
F1966       F  0.72978538  0.98414002  0.06200667    -0.20200
F1967       F  0.79059434  0.95733963  0.03744957    -0.20500
F1968       F  0.75110211  0.44538563  0.04667065    -0.23200
C1969       C  0.81242709  0.72395562  0.97496180    -0.06000
C1970       C  0.76425051  0.71762792  0.98735283    -0.00100
C1971       C  0.73528390  0.74148798  0.00113444    -0.08600
C1972       C  0.75450931  0.77160171  0.00045249    -0.06000
C1973       C  0.80123364  0.77833281  0.98652461    -0.00100
C1974       C  0.83122379  0.75443476  0.97377049    -0.08500
C1975       C  0.88016837  0.76164853  0.95659936     0.61800
H1976       H  0.83328614  0.70529629  0.96403949     0.12500
H1977       H  0.73170438  0.79051042  0.00940632     0.12500
C1978       C  0.68125400  0.73666664  0.01222312     0.62100
F1979       F  0.90296892  0.73510309  0.94522077    -0.23100
F1980       F  0.91395699  0.77584271  0.97650150    -0.20400
F1981       F  0.87003673  0.78131793  0.93159437    -0.20100
F1982       F  0.67527779  0.70766559  0.02586754    -0.20200
F1983       F  0.64917289  0.73982733  0.98690606    -0.20500
F1984       F  0.66753641  0.75852207  0.03412271    -0.23200
C1985       C  0.99115063  0.94770235  0.52881556    -0.06000
C1986       C  0.96446223  0.95269663  0.50087105    -0.00100
C1987       C  0.97572600  0.97999194  0.97962999    -0.08600
C1988       C  0.01325434  0.00068700  0.99073610    -0.06000
C1989       C  0.04083096  0.99497418  0.52084024    -0.00100
C1990       C  0.02777973  0.96870018  0.53974808    -0.08500
C1991       C  0.04185323  0.46522559  0.57717946     0.61800
H1992       H  0.98238065  0.92716028  0.54249579     0.12500
H1993       H  0.02492547  0.02019982  0.97640105     0.12500
C1994       C  0.95339432  0.98539642  0.94727224     0.62100
F1995       F  0.01574353  0.44189972  0.59275800    -0.23100
F1996       F  0.03743611  0.49180088  0.59482878    -0.20400
F1997       F  0.09215748  0.45631051  0.57545516    -0.20100
F1998       F  0.90219348  0.99198835  0.94961624    -0.20200
F1999       F  0.96029495  0.95923913  0.92929698    -0.20500
F2000       F  0.97614197  0.01008906  0.93183918    -0.23200
C2001       C  0.28766012  0.97327665  0.77309440    -0.06000
C2002       C  0.27517158  0.96287928  0.80336767    -0.00100
C2003       C  0.28302888  0.98291356  0.82921190    -0.08600
C2004       C  0.30745199  0.51173657  0.82385628    -0.06000
C2005       C  0.31298052  0.52435215  0.79386890    -0.00100
C2006       C  0.30329205  0.00392665  0.76723814    -0.08500
C2007       C  0.30797199  0.01569092  0.73379160     0.61800
H2008       H  0.28139615  0.95792437  0.75370365     0.12500
H2009       H  0.31425634  0.52665221  0.84361297     0.12500
C2010       C  0.26925311  0.97423863  0.86277120     0.62100
F2011       F  0.29591409  0.99306316  0.71235233    -0.23100
F2012       F  0.36042747  0.52727167  0.72924933    -0.20400
F2013       F  0.27889056  0.54339197  0.73028055    -0.20100
F2014       F  0.28959333  0.94563296  0.87064614    -0.20200
F2015       F  0.21705910  0.97351079  0.86604715    -0.20500
F2016       F  0.30384117  0.49021857  0.88368143    -0.23200
C2017       C  0.24672640  0.76585835  0.77082720    -0.06000
C2018       C  0.20538452  0.77459356  0.78921175    -0.00100
C2019       C  0.17806371  0.75219466  0.80656126    -0.08600
C2020       C  0.19458039  0.72122663  0.80567728    -0.06000
C2021       C  0.23774536  0.71278650  0.78857995    -0.00100
C2022       C  0.26365696  0.73514647  0.77013189    -0.08500
C2023       C  0.31109065  0.72861937  0.75109787     0.61800
H2024       H  0.26721749  0.78351784  0.75772134     0.12500
H2025       H  0.17613701  0.70374699  0.82005162     0.12500
C2026       C  0.13408659  0.76141338  0.82735360     0.62100
F2027       F  0.30474517  0.74018564  0.72106964    -0.23100
F2028       F  0.32228607  0.69741523  0.74888260    -0.20400
F2029       F  0.35186526  0.74342974  0.76464448    -0.20100
F2030       F  0.09642350  0.77516818  0.80949628    -0.20200
F2031       F  0.15063237  0.78221181  0.84949655    -0.20500
F2032       F  0.11340096  0.73606270  0.84281981    -0.23200
C2033       C  0.00314691  0.94204770  0.76398050    -0.06000
C2034       C  0.05059053  0.95226166  0.77486365    -0.00100
C2035       C  0.05909028  0.98490392  0.77575795    -0.08600
C2036       C  0.01127850  0.50349562  0.77721720    -0.06000
C2037       C  0.97245520  0.99520339  0.75478968    -0.00100
C2038       C  0.96410472  0.96248983  0.75413423    -0.08500
C2039       C  0.91414988  0.94851852  0.74351008     0.61800
H2040       H  0.99650023  0.91733311  0.76322609     0.12500
H2041       H  0.00982993  0.52689615  0.78605698     0.12500
C2042       C  0.10945137  0.99825351  0.78640397     0.62100
F2043       F  0.91219879  0.91679417  0.74874333    -0.23100
F2044       F  0.90769300  0.95369097  0.71181770    -0.20400
F2045       F  0.87443806  0.96159673  0.75982389    -0.20100
F2046       F  0.14867217  0.98559548  0.76918100    -0.20200
F2047       F  0.11678117  0.99176711  0.81779280    -0.20500
F2048       F  0.08361248  0.52669202  0.81587331    -0.23200
C2049       C  0.95140794  0.84732820  0.88107703    -0.06000
C2050       C  0.96932511  0.85007660  0.91182215    -0.00100
C2051       C  0.02181907  0.84825526  0.91793767    -0.08600
C2052       C  0.05525234  0.84614068  0.89251332    -0.06000
C2053       C  0.03760237  0.84734856  0.86158018    -0.00100
C2054       C  0.98500065  0.84645519  0.85556785    -0.08500
C2055       C  0.96464633  0.84807586  0.82248572     0.61800
H2056       H  0.91096117  0.84900396  0.87702309     0.12500
H2057       H  0.09571274  0.84711461  0.89646111     0.12500
C2058       C  0.04244490  0.85186141  0.95077399     0.62100
F2059       F  0.91260616  0.84397007  0.82166014    -0.23100
F2060       F  0.98680485  0.82512065  0.80471918    -0.20400
F2061       F  0.97570310  0.87673591  0.80940938    -0.20100
F2062       F  0.09468591  0.84875852  0.95168654    -0.20200
F2063       F  0.02174209  0.82943274  0.97022442    -0.20500
F2064       F  0.02999316  0.88092336  0.96189163    -0.23200
C2065       C  0.21133344  0.72015509  0.55787171    -0.06000
C2066       C  0.26434554  0.72258815  0.55679758    -0.00100
C2067       C  0.29472401  0.69567284  0.55463823    -0.08600
C2068       C  0.27080702  0.66690970  0.55529237    -0.06000
C2069       C  0.21777083  0.66414703  0.55626054    -0.00100
C2070       C  0.18715731  0.69110630  0.55753672    -0.08500
C2071       C  0.12990082  0.68930999  0.55993413     0.61800
H2072       H  0.18913245  0.74124916  0.55944406     0.12500
H2073       H  0.29365663  0.64606595  0.55381539     0.12500
C2074       C  0.35183974  0.69709588  0.55040301     0.62100
F2075       F  0.10832514  0.71825707  0.56438004    -0.23100
F2076       F  0.11658322  0.67052927  0.58500951    -0.20400
F2077       F  0.11006555  0.67727379  0.53278799    -0.20100
F2078       F  0.37397167  0.70866645  0.57704965    -0.20200
F2079       F  0.36328538  0.71587682  0.52497434    -0.20500
F2080       F  0.37282573  0.66814468  0.54499841    -0.23200
C2081       C  0.32854734  0.93701624  0.53633553    -0.06000
C2082       C  0.29249988  0.91311937  0.53601909    -0.00100
C2083       C  0.24036749  0.92036168  0.53184533    -0.08600
C2084       C  0.22580611  0.95156485  0.53189031    -0.06000
C2085       C  0.26138908  0.97530323  0.53493246    -0.00100
C2086       C  0.31370100  0.96833937  0.53568286    -0.08500
C2087       C  0.34679227  0.49316016  0.54764535     0.61800
H2088       H  0.36834415  0.93093230  0.53834318     0.12500
H2089       H  0.18596440  0.95776722  0.53069178     0.12500
C2090       C  0.20026743  0.89569380  0.52634461     0.62100
F2091       F  0.39558452  0.48129546  0.54902962    -0.23100
F2092       F  0.33774869  0.50905474  0.57483074    -0.20400
F2093       F  0.34397487  0.51352314  0.52253112    -0.20100
F2094       F  0.19375078  0.87748126  0.55279467    -0.20200
F2095       F  0.21485638  0.87732254  0.50163340    -0.20500
F2096       F  0.15361741  0.90865664  0.51894668    -0.23200
C2097       C  0.53087823  0.72209637  0.48605758    -0.06000
C2098       C  0.55026847  0.70056522  0.50786119    -0.00100
C2099       C  0.53512983  0.70280038  0.53959610    -0.08600
C2100       C  0.50065265  0.72643474  0.54812268    -0.06000
C2101       C  0.48079018  0.74782614  0.52619071    -0.00100
C2102       C  0.49599631  0.74544302  0.49447057    -0.08500
C2103       C  0.47412047  0.76650610  0.46921285     0.61800
H2104       H  0.54287163  0.72013049  0.46194580     0.12500
H2105       H  0.48872586  0.72836448  0.57223881     0.12500
C2106       C  0.55569391  0.68079445  0.56452447     0.62100
F2107       F  0.49107377  0.79649719  0.47331701    -0.23100
F2108       F  0.42175851  0.76591018  0.47060469    -0.20400
F2109       F  0.50181173  0.76881153  0.94201458    -0.20100
F2110       F  0.60806198  0.68047611  0.56370686    -0.20200
F2111       F  0.51719772  0.64608092  0.05112555    -0.20500
F2112       F  0.54103220  0.68949925  0.59424644    -0.23200
C2113       C  0.28461483  0.85774318  0.65947078    -0.06000
C2114       C  0.26043197  0.83325794  0.64410230    -0.00100
C2115       C  0.21157583  0.82362486  0.65471818    -0.08600
C2116       C  0.19099540  0.83732748  0.68179314    -0.06000
C2117       C  0.21687374  0.86044937  0.69804693    -0.00100
C2118       C  0.26320566  0.87188795  0.68587821    -0.08500
C2119       C  0.28995233  0.89908494  0.70074718     0.61800
H2120       H  0.32093625  0.86573238  0.65073329     0.12500
H2121       H  0.15569941  0.82885551  0.69156320     0.12500
C2122       C  0.18195758  0.79813510  0.63869132     0.62100
F2123       F  0.32518251  0.91221688  0.68062173    -0.23100
F2124       F  0.31481813  0.88940297  0.72755198    -0.20400
F2125       F  0.25490865  0.92177310  0.70819851    -0.20100
F2126       F  0.21145430  0.77165613  0.63660877    -0.20200
F2127       F  0.16773450  0.80789903  0.60909332    -0.20500
F2128       F  0.13818522  0.79046834  0.65489392    -0.23200
C2129       C  0.32688233  0.83898065  0.92887630    -0.06000
C2130       C  0.29323682  0.82625803  0.95089312    -0.00100
C2131       C  0.24190280  0.82196565  0.94196240    -0.08600
C2132       C  0.22405662  0.83619374  0.91432849    -0.06000
C2133       C  0.25665120  0.85154643  0.89333584    -0.00100
C2134       C  0.31000172  0.85026682  0.89947347    -0.08500
C2135       C  0.34949868  0.86026813  0.87554269     0.61800
H2136       H  0.36641655  0.84089068  0.93525223     0.12500
H2137       H  0.18416594  0.83477039  0.90878088     0.12500
C2138       C  0.20594927  0.80153981  0.96068445     0.62100
F2139       F  0.39845873  0.85558732  0.88632224    -0.23100
F2140       F  0.34404040  0.89142846  0.86845153    -0.20400
F2141       F  0.34408474  0.84295727  0.84872663    -0.20100
F2142       F  0.18677656  0.81484763  0.47960239    -0.20200
F2143       F  0.24323456  0.77573519  0.47487058    -0.20500
F2144       F  0.16777501  0.79009207  0.94187105    -0.23200
C2145       C  0.82818934  0.68868785  0.73745277    -0.06000
C2146       C  0.79185536  0.66501520  0.73570215    -0.00100
C2147       C  0.73932805  0.67280133  0.73474410    -0.08600
C2148       C  0.72564211  0.70412391  0.73535455    -0.06000
C2149       C  0.76190288  0.72769720  0.73532227    -0.00100
C2150       C  0.81404661  0.72019361  0.73642545    -0.08500
C2151       C  0.85429323  0.74517787  0.73515513     0.61800
H2152       H  0.86793587  0.68228916  0.73834141     0.12500
H2153       H  0.68598740  0.71068995  0.73406253     0.12500
C2154       C  0.69729025  0.64873827  0.73217152     0.62100
F2155       F  0.90257206  0.73269532  0.73285165    -0.23100
F2156       F  0.85188698  0.76260777  0.76200624    -0.20400
F2157       F  0.84648738  0.76429704  0.70942942    -0.20100
F2158       F  0.70277541  0.62618136  0.75512637    -0.20200
F2159       F  0.69887300  0.63523090  0.70301443    -0.20500
F2160       F  0.64956595  0.66176217  0.73567188    -0.23200
C2161       C  0.72337960  0.96565456  0.70404071    -0.06000
C2162       C  0.74183427  0.97924225  0.73142937    -0.00100
C2163       C  0.73503188  0.96385612  0.76057908    -0.08600
C2164       C  0.71677022  0.93326607  0.76050487    -0.06000
C2165       C  0.70268204  0.91893412  0.73261781    -0.00100
C2166       C  0.70170507  0.93608364  0.70441467    -0.08500
C2167       C  0.67514049  0.92396743  0.67558205     0.61800
H2168       H  0.71833862  0.47911889  0.68607128     0.12500
H2169       H  0.71499483  0.91988646  0.78204828     0.12500
C2170       C  0.74820103  0.97901177  0.79132484     0.62100
F2171       F  0.62509974  0.91767367  0.68289979    -0.23100
F2172       F  0.69806727  0.89716161  0.66531085    -0.20400
F2173       F  0.67572112  0.94543958  0.65128068    -0.20100
F2174       F  0.71849548  0.00517610  0.79526925    -0.20200
F2175       F  0.79873284  0.98726464  0.79142880    -0.20500
F2176       F  0.73968085  0.95938208  0.81659921    -0.23200
C2177       C  0.51983112  0.74730657  0.78193254    -0.06000
C2178       C  0.54009975  0.74521012  0.75158375    -0.00100
C2179       C  0.52111791  0.72150594  0.73183335    -0.08600
C2180       C  0.48423838  0.70043980  0.74351951    -0.06000
C2181       C  0.46423054  0.70234960  0.77393208    -0.00100
C2182       C  0.48265003  0.72635053  0.79356642    -0.08500
C2183       C  0.46463438  0.72941690  0.82711402     0.61800
H2184       H  0.53389560  0.76554763  0.79675287     0.12500
H2185       H  0.47024118  0.68220259  0.72866545     0.12500
C2186       C  0.53800603  0.71900028  0.69802009     0.62100
F2187       F  0.49174796  0.75163062  0.84313356    -0.23100
F2188       F  0.47065418  0.70143659  0.84283098    -0.20400
F2189       F  0.41410656  0.73802527  0.82754851    -0.20100
F2190       F  0.58818695  0.70976557  0.69675590    -0.20200
F2191       F  0.53246610  0.74741386  0.68305329    -0.20500
F2192       F  0.50955034  0.69756676  0.68180729    -0.23200
C2193       C  0.68105264  0.85767514  0.84573515    -0.06000
C2194       C  0.70754207  0.83432406  0.82993708    -0.00100
C2195       C  0.75375902  0.82285795  0.84260058    -0.08600
C2196       C  0.77281908  0.83600775  0.87007750    -0.06000
C2197       C  0.74790890  0.86055030  0.88491276    -0.00100
C2198       C  0.70089457  0.87146502  0.87286143    -0.08500
C2199       C  0.67402753  0.89920312  0.88694644     0.61800
H2200       H  0.64661945  0.86671623  0.83524509     0.12500
H2201       H  0.80855984  0.82786672  0.87963815     0.12500
C2202       C  0.78447842  0.79792329  0.82634728     0.62100
F2203       F  0.63278379  0.90862525  0.86921923    -0.23100
F2204       F  0.70729187  0.92387028  0.88856604    -0.20400
F2205       F  0.65672825  0.89181540  0.91658676    -0.20100
F2206       F  0.80919343  0.81063880  0.80078616    -0.20200
F2207       F  0.75295369  0.77433101  0.81663045    -0.20500
F2208       F  0.82068861  0.78502751  0.84601157    -0.23200
C2209       C  0.79340405  0.82254448  0.58267786    -0.06000
C2210       C  0.80978950  0.85353072  0.58041148    -0.00100
C2211       C  0.80827929  0.87231136  0.60730108    -0.08600
C2212       C  0.78669961  0.85994427  0.63498012    -0.06000
C2213       C  0.76558956  0.83000565  0.63597655    -0.00100
C2214       C  0.77133639  0.81042482  0.61003749    -0.08500
C2215       C  0.75406521  0.77690355  0.61130562     0.61800
H2216       H  0.79582765  0.80816326  0.56211132     0.12500
H2217       H  0.78449299  0.87396830  0.65575870     0.12500
C2218       C  0.82699102  0.90543537  0.60634007     0.62100
F2219       F  0.76970292  0.76066462  0.58527327    -0.23100
F2220       F  0.70174679  0.77582297  0.61279670    -0.20400
F2221       F  0.77420465  0.76225381  0.63743013    -0.20100
F2222       F  0.80067110  0.92183930  0.58381977    -0.20200
F2223       F  0.87811984  0.90589379  0.59920923    -0.20500
F2224       F  0.81994654  0.92019262  0.63459376    -0.23200
C2225       C  0.46782078  0.86500950  0.63664941    -0.06000
C2226       C  0.48446599  0.85554635  0.60706940    -0.00100
C2227       C  0.53629831  0.84875041  0.60231929    -0.08600
C2228       C  0.56826138  0.84687801  0.62847657    -0.06000
C2229       C  0.54944804  0.85126894  0.65883745    -0.00100
C2230       C  0.49977137  0.86289469  0.66294421    -0.08500
C2231       C  0.47931416  0.87010583  0.69513413     0.61800
H2232       H  0.42792837  0.87033210  0.63967865     0.12500
H2233       H  0.60700508  0.83891272  0.62570887     0.12500
C2234       C  0.55638934  0.84043552  0.57024706     0.62100
F2235       F  0.43028026  0.88159021  0.69383296    -0.23100
F2236       F  0.50952446  0.89220967  0.70899433    -0.20400
F2237       F  0.47922173  0.84344337  0.71340304    -0.20100
F2238       F  0.54256063  0.86318835  0.54884954    -0.20200
F2239       F  0.53652942  0.81234600  0.56106906    -0.20500
F2240       F  0.60876996  0.83799543  0.57004835    -0.23200
loop_ 
_geom_bond_atom_site_label_1 
_geom_bond_atom_site_label_2 
_geom_bond_distance 
_geom_bond_site_symmetry_2 
_ccdc_geom_bond_type 
O1          Cr19   2.009       .  S
O1            C9   1.260       .  A
O2          Cr19   1.962       .  S
O2            C3   1.261       .  A
C3            O4   1.266       .  A
C3          C485   1.462       .  S
O4          Cr20   2.009       .  S
O5          Cr20   2.002       .  S
O5            C6   1.262       .  A
C6            O7   1.259       .  A
C6          C549   1.483       .  S
O7          Cr21   1.980       .  S
O8          Cr21   1.995       .  S
O8            C9   1.260       .  A
C9          C533   1.491       .  S
O10         Cr19   1.977       .  S
O10          C18   1.260       .  A
O11         Cr19   1.985       .  S
O11          C12   1.258       .  A
C12          O13   1.266       .  A
C12         C514   1.479       .  S
O13         Cr20   2.005       .  S
O14         Cr20   2.028       .  S
O14          C15   1.272       .  A
C15          O16   1.264       .  A
C15         C498   1.508       .  S
O16         Cr21   1.995       .  S
O17         Cr21   1.995       .  S
O17          C18   1.265       .  A
C18         C469   1.465       .  S
Cr19         O22   1.784       .  S
Cr20         O22   1.785       .  S
Cr21         O22   1.774       .  S
O23         Cr41   2.003       .  S
O23          C31   1.260       .  A
O24         Cr41   1.946       .  S
O24          C25   1.255       .  A
C25          O26   1.267       .  A
C25         C402   1.460       .  S
O26         Cr42   2.008       .  S
O27         Cr42   2.016       .  S
O27          C28   1.264       .  A
C28          O29   1.254       .  A
C28         C546   1.478       .  S
O29         Cr43   1.968       .  S
O30         Cr43   2.010       .  S
O30          C31   1.263       .  A
C31         C434   1.498       .  S
O32         Cr41   1.963       .  S
O32          C40   1.256       .  A
O33         Cr41   1.983       .  S
O33         C594   1.257   1_554  A
C34         O593   1.256       .  A
C34         O595   1.266       .  A
C34         C450   1.491       .  S
O35         Cr42   2.009   1_556  S
O35         C594   1.266       .  A
O36         Cr42   2.024       .  S
O36          C37   1.271       .  A
C37          O38   1.267       .  A
C37         C421   1.507       .  S
O38         Cr43   1.989       .  S
O39         Cr43   2.007       .  S
O39          C40   1.266       .  A
C40         C386   1.467       .  S
Cr41         O44   1.776       .  S
Cr42         O44   1.783       .  S
Cr43         O44   1.772       .  S
O45         Cr63   2.005       .  S
O45          C53   1.261       .  A
O46         Cr63   1.964       .  S
O46          C47   1.259       .  A
C47          O48   1.263       .  A
C47         C338   1.459       .  S
O48         Cr64   1.997       .  S
O49         Cr64   2.009       .  S
O49          C50   1.260       .  A
C50          O51   1.251       .  A
C50         C373   1.472       .  S
O51         Cr65   1.964       .  S
O52         Cr65   2.002       .  S
O52          C53   1.267       .  A
C53         C453   1.501       .  S
O54         Cr63   1.983       .  S
O54          C62   1.262       .  A
O55         Cr63   1.981       .  S
O55          C56   1.259       .  A
C56          O57   1.269       .  A
C56         C437   1.484       .  S
O57         Cr64   2.008       .  S
O58         Cr64   2.025       .  S
O58          C59   1.275       .  A
C59          O60   1.268       .  A
C59         C354   1.515       .  S
O60         Cr65   1.998       .  S
O61         Cr65   1.971       .  S
O61          C62   1.253       .  A
C62         C322   1.481       .  S
Cr63         O66   1.776       .  S
Cr64         O66   1.780       .  S
Cr65         O66   1.769       .  S
O67         Cr85   2.005       .  S
O67          C75   1.260       .  A
O68         Cr85   1.961       .  S
O68          C69   1.262       .  A
C69          O70   1.269       .  A
C69         C293   1.464       .  S
O70         Cr86   2.013       .  S
O71         Cr86   1.994       .  S
O71          C72   1.258       .  A
C72          O73   1.256       .  A
C72         C370   1.471       .  S
O73         Cr87   1.977       .  S
O74         Cr87   1.994       .  S
O74          C75   1.261       .  A
C75         C517   1.480       .  S
O76         Cr85   1.977       .  S
O76          C84   1.261       .  A
O77        Cr645   1.980   1_554  S
O77          C78   1.258       .  A
C78          O79   1.267       .  A
C78         C530   1.495       .  S
O79        Cr646   2.017   1_554  S
O80        Cr646   2.025       .  S
O80         C641   1.274       .  A
C81          O82   1.263       .  A
C81         O640   1.277       .  A
C81         C866   1.510       .  S
O82         Cr87   1.984       .  S
O83         Cr87   1.996       .  S
O83          C84   1.265       .  A
C84         C274   1.477       .  S
Cr85        O637   1.980       .  S
Cr85         O88   1.773       .  S
Cr86        O639   2.007       .  S
Cr86        O640   2.035       .  S
Cr86         O88   1.780       .  S
Cr87         O88   1.772       .  S
O89        Cr107   2.005       .  S
O89          C97   1.262       .  A
O90        Cr107   1.979       .  S
O90          C91   1.256       .  A
C91          O92   1.255       .  A
C91         C258   1.464       .  S
O92        Cr108   1.981       .  S
O93        Cr108   2.023       .  S
O93          C94   1.272       .  A
C94          O95   1.260       .  A
C94         C389   1.477       .  S
O95        Cr109   1.951       .  S
O96        Cr109   2.003       .  S
O96          C97   1.256       .  A
C97         C226   1.493       .  S
O98        Cr107   1.999       .  S
O98         C106   1.269       .  A
O99        Cr107   1.981       .  S
O99         C100   1.264       .  A
C100        O101   1.278       .  A
C100       C1429   1.510   1_545  S
O101       Cr108   2.043       .  S
O102       Cr108   2.004   1_556  S
O102        C663   1.265       .  A
C103        O662   1.269       .  A
C103        O664   1.256       .  A
C103        C245   1.505       .  S
O104       Cr109   1.986       .  S
O104        C663   1.256   1_554  A
O105       Cr109   1.976       .  S
O105        C106   1.262       .  A
C106       C1525   1.467   1_545  S
Cr107       O110   1.764       .  S
Cr108       O110   1.782       .  S
Cr109       O110   1.772       .  S
O111       Cr129   2.007       .  S
O111        C119   1.264       .  A
O112       Cr129   1.975       .  S
O112        C113   1.258       .  A
C113        O114   1.258       .  A
C113        C261   1.469       .  S
O114       Cr130   1.992       .  S
O115       Cr130   2.027       .  S
O115        C116   1.270       .  A
C116        O117   1.255       .  A
C116        C466   1.476       .  S
O117       Cr131   1.954       .  S
O118       Cr131   2.023       .  S
O118        C119   1.265       .  A
C119        C210   1.499       .  S
O120       Cr129   1.994       .  S
O120        C128   1.265       .  A
O121       Cr129   2.000       .  S
O121        C122   1.267       .  A
C122        O123   1.278       .  A
C122       C1477   1.529   1_545  S
O123       Cr130   2.045       .  S
O124       Cr130   1.999       .  S
O124        C125   1.264       .  A
C125        O126   1.264       .  A
C125        C197   1.486       .  S
O126       Cr131   1.998       .  S
O127       Cr131   1.962       .  S
O127        C128   1.257       .  A
C128       C1602   1.466   1_545  S
Cr129       O132   1.768       .  S
Cr130       O132   1.781       .  S
Cr131       O132   1.769       .  S
O133       Cr151   1.984       .  S
O133        C141   1.259       .  A
O134       Cr151   1.975       .  S
O134        C135   1.257       .  A
C135        O136   1.263       .  A
C135        C178   1.479       .  S
O136       Cr152   2.004       .  S
O137       Cr152   2.015       .  S
O137        C138   1.267       .  A
C138        O139   1.259       .  A
C138        C325   1.475       .  S
O139       Cr153   1.953       .  S
O140       Cr153   2.005       .  S
O140        C141   1.255       .  A
C141        C242   1.498       .  S
O142       Cr151   1.995       .  S
O142        C150   1.264       .  A
O143       Cr151   1.992       .  S
O143        C144   1.265       .  A
C144        O145   1.272       .  A
C144        C501   1.507       .  S
O145       Cr152   2.029       .  S
O146       Cr152   2.015       .  S
O146        C147   1.268       .  A
C147        O148   1.256       .  A
C147        C229   1.486       .  S
O148       Cr153   1.976       .  S
O149       Cr153   1.970       .  S
O149        C150   1.260       .  A
C150        C341   1.458       .  S
Cr151       O154   1.776       .  S
Cr152       O154   1.790       .  S
Cr153       O154   1.784       .  S
O155       Cr173   1.983       .  S
O155        C163   1.256       .  A
O156       Cr173   1.984       .  S
O156        C157   1.260       .  A
C157        O158   1.263       .  A
C157        C181   1.479       .  S
O158       Cr174   2.000       .  S
O159       Cr174   2.010       .  S
O159        C160   1.267       .  A
C160        O161   1.259       .  A
C160        C277   1.466       .  S
O161       Cr175   1.968       .  S
O162       Cr175   1.993       .  S
O162        C163   1.254       .  A
C163        C194   1.481       .  S
O164       Cr173   1.998       .  S
O164        C172   1.266       .  A
O165       Cr173   1.995       .  S
O165        C166   1.265       .  A
C166        O727   1.267       .  A
C166        C978   1.504       .  S
O167       Cr734   2.014       .  S
O167        C726   1.266       .  A
O168       Cr734   2.021   1_554  S
O168        C169   1.269       .  A
C169        O170   1.261       .  A
C169        C213   1.498       .  S
O170       Cr735   2.000   1_554  S
O171       Cr175   1.971       .  S
O171        C172   1.261       .  A
C172        C290   1.461       .  S
Cr173       O176   1.783       .  S
Cr174       O727   2.018       .  S
Cr174       O728   2.016       .  S
Cr174       O176   1.788       .  S
Cr175       O730   1.986       .  S
Cr175       O176   1.786       .  S
C177        C178   1.399       .  A
C177        C182   1.408       .  A
C177        H184   1.084       .  S
C178        C179   1.419       .  A
C179        C180   1.404       .  A
C179        C186   1.511       .  S
C180        C181   1.398       .  A
C180        H185   1.084       .  S
C181        C182   1.422       .  A
C182        C183   1.514       .  S
C183        F187   1.384       .  S
C183        F188   1.377       .  S
C183        F189   1.383       .  S
C186        F190   1.384       .  S
C186        F191   1.381       .  S
C186        F192   1.384       .  S
C193        C194   1.407       .  A
C193        C198   1.414       .  A
C193        H200   1.098       .  S
C194        C195   1.410       .  A
C195        C196   1.402       .  A
C195        C202   1.518       .  S
C196        C197   1.407       .  A
C196        H201   1.088       .  S
C197        C198   1.416       .  A
C198        C199   1.515       .  S
C199        F203   1.386       .  S
C199        F204   1.382       .  S
C199        F205   1.381       .  S
C202        F206   1.384       .  S
C202        F207   1.382       .  S
C202        F208   1.384       .  S
C209        C210   1.403       .  A
C209        C214   1.415       .  A
C209        H216   1.082       .  S
C210        C211   1.421       .  A
C211        C212   1.418       .  A
C211        C218   1.516       .  S
C212        C213   1.406       .  A
C212        H217   1.082       .  S
C213        C214   1.420       .  A
C214        C215   1.515       .  S
C215        F219   1.385       .  S
C215        F220   1.383       .  S
C215        F221   1.380       .  S
C218        F222   1.383       .  S
C218        F223   1.382       .  S
C218        F224   1.385       .  S
C225        C226   1.402       .  A
C225        C230   1.407       .  A
C225        H232   1.084       .  S
C226        C227   1.424       .  A
C227        C228   1.415       .  A
C227        C234   1.517       .  S
C228        C229   1.403       .  A
C228        H233   1.082       .  S
C229        C230   1.419       .  A
C230        C231   1.517       .  S
C231        F235   1.385       .  S
C231        F236   1.383       .  S
C231        F237   1.382       .  S
C234        F238   1.381       .  S
C234        F239   1.384       .  S
C234        F240   1.385       .  S
C241        C242   1.395       .  A
C241        C246   1.400       .  A
C241        H248   1.082       .  S
C242        C243   1.426       .  A
C243        C244   1.419       .  A
C243        C250   1.516       .  S
C244        C245   1.406       .  A
C244        H249   1.083       .  S
C245        C246   1.433       .  A
C246        C247   1.520       .  S
C247        F251   1.386       .  S
C247        F812   1.382       .  S
C247        F813   1.377       .  S
C250        F254   1.378       .  S
C250        F255   1.383       .  S
C250        F256   1.385       .  S
F252        C807   1.381       .  S
F253        C807   1.378       .  S
C257        C258   1.403       .  A
C257        C262   1.407       .  A
C257        H264   1.085       .  S
C258        C259   1.411   1_455  A
C259        C260   1.401       .  A
C259        C266   1.517       .  S
C260        C261   1.404       .  A
C260        H265   1.085       .  S
C261        C262   1.412   1_655  A
C262        C263   1.515       .  S
C263        F267   1.385       .  S
C263        F268   1.383       .  S
C263        F269   1.383       .  S
C266        F270   1.383       .  S
C266        F271   1.383       .  S
C266        F272   1.385       .  S
C273        C274   1.406       .  A
C273        C278   1.401       .  A
C273        H280   1.082       .  S
C274        C275   1.418       .  A
C275       C1396   1.403       .  A
C275        C282   1.514       .  S
C276        C277   1.399       .  A
C276       C1395   1.404   1_545  A
C276        H281   1.084       .  S
C277       C1398   1.411       .  A
C278       C1397   1.409       .  A
C278        C279   1.516       .  S
C279        F283   1.385       .  S
C279       F1404   1.378       .  S
C279        F845   1.383       .  S
C282        F286   1.385       .  S
C282        F287   1.383       .  S
C282       F1408   1.383       .  S
F284       C1399   1.378       .  S
F285        C839   1.383       .  S
F288       C1402   1.383       .  S
C289        C290   1.404       .  A
C289        C294   1.408       .  A
C289        H296   1.084       .  S
C290        C291   1.414       .  A
C291        C292   1.396       .  A
C291        C298   1.518       .  S
C292        C293   1.400       .  A
C292        H297   1.085       .  S
C293        C294   1.413       .  A
C294        C295   1.517       .  S
C295        F299   1.384       .  S
C295        F300   1.383       .  S
C295        F301   1.384       .  S
C298        F302   1.381       .  S
C298        F303   1.382       .  S
C298        F304   1.382       .  S
C305        C306   1.403   1_554  A
C305        C310   1.413   1_655  A
C305        H312   1.082       .  S
C306        C641   1.503       .  S
C306        C867   1.424       .  A
C307        C308   1.420   1_655  A
C307        C866   1.428       .  A
C307        C314   1.520       .  S
C308        C869   1.407       .  A
C308        H313   1.081       .  S
C309       C1220   1.509       .  S
C309        C310   1.428       .  A
C309        C868   1.408   1_554  A
C310       C1431   1.521       .  S
C311       C1430   1.521       .  S
C311        F315   1.385       .  S
C311        F316   1.383       .  S
C311        F317   1.382       .  S
C314        F318   1.384       .  S
C314        F319   1.383       .  S
C314        F320   1.385       .  S
C321        C322   1.404       .  A
C321        C326   1.404       .  A
C321        H328   1.082       .  S
C322        C323   1.429       .  A
C323       C1444   1.398       .  A
C323        C330   1.526       .  S
C324        C325   1.399       .  A
C324       C1443   1.400   1_545  A
C324        H329   1.083       .  S
C325       C1446   1.415       .  A
C326       C1445   1.417       .  A
C326        C327   1.516       .  S
C327        F331   1.385       .  S
C327       F1452   1.382       .  S
C327       F1453   1.381       .  S
C330        F334   1.380       .  S
C330        F335   1.384       .  S
C330       F1456   1.384       .  S
F332       C1447   1.383       .  S
F333       C1447   1.381       .  S
F336       C1450   1.386   1_545  S
C337        C338   1.397       .  A
C337        C342   1.396       .  A
C337        H344   1.086       .  S
C338        C339   1.412       .  A
C339        C340   1.406       .  A
C339        C346   1.518       .  S
C340        C341   1.405       .  A
C340        H345   1.083       .  S
C341        C342   1.415       .  A
C342        C343   1.519       .  S
C343        F347   1.384       .  S
C343        F348   1.381       .  S
C343        F349   1.383       .  S
C346        F350   1.383       .  S
C346        F351   1.384       .  S
C346        F352   1.385       .  S
C353        C354   1.409   1_655  A
C353        C358   1.413       .  A
C353        H360   1.081       .  S
C354        C355   1.426       .  A
C355       C1476   1.420       .  A
C355        C362   1.520       .  S
C356       C1475   1.423   1_545  A
C356       C1477   1.414   1_445  A
C356        H361   1.082       .  S
C357       C1242   1.517       .  S
C357        C358   1.427       .  A
C357       C1476   1.412   1_655  A
C358        C359   1.522       .  S
C359        F363   1.385       .  S
C359        F364   1.383       .  S
C359        F365   1.380       .  S
C362        F366   1.383       .  S
C362        F367   1.383       .  S
C362       F1488   1.385       .  S
F368       C1482   1.384   1_545  S
C369        C370   1.405       .  A
C369        C374   1.408       .  A
C369        H376   1.085       .  S
C370        C371   1.411   1_655  A
C371        C372   1.405       .  A
C371        C378   1.518       .  S
C372        C373   1.406       .  A
C372        H377   1.086       .  S
C373        C374   1.412   1_455  A
C374        C375   1.516       .  S
C375        F379   1.385       .  S
C375        F380   1.383       .  S
C375        F381   1.383       .  S
C378        F382   1.385       .  S
C378        F383   1.383       .  S
C378        F384   1.384       .  S
C385        C386   1.405       .  A
C385        C390   1.410       .  A
C385        H392   1.083       .  S
C386        C387   1.411       .  A
C387        C388   1.390       .  A
C387        C394   1.516       .  S
C388        C389   1.403       .  A
C388        H393   1.083       .  S
C389        C390   1.418       .  A
C390        C391   1.517       .  S
C391        F395   1.385       .  S
C391        F396   1.383       .  S
C391        F397   1.382       .  S
C394        F398   1.381       .  S
C394        F399   1.383       .  S
C394        F400   1.385       .  S
C401        C402   1.399       .  A
C401        C406   1.400       .  A
C401        H408   1.085       .  S
C402        C403   1.420       .  A
C403        C404   1.395       .  A
C403        C410   1.522       .  S
C404        C405   1.396       .  A
C404        H409   1.085       .  S
C405       C1226   1.456       .  S
C405        C406   1.412       .  A
C406       C1527   1.511       .  S
C407       C1526   1.516       .  S
C407        F411   1.385       .  S
C407        F412   1.380   1_565  S
C407        F413   1.383   1_565  S
C410        F414   1.382       .  S
C410        F415   1.382   1_554  S
C410        F416   1.385       .  S
C417        C418   1.408   1_556  A
C417        C422   1.417       .  A
C417        H424   1.083       .  S
C418        C726   1.507   1_554  S
C418        C419   1.423       .  A
C419        C420   1.416       .  A
C419        C426   1.518       .  S
C420        C421   1.407       .  A
C420        H425   1.083       .  S
C421        C422   1.423   1_554  A
C422        C423   1.519       .  S
C423        F427   1.382       .  S
C423        F428   1.383       .  S
C423        F989   1.384       .  S
C426        F430   1.383       .  S
C426        F432   1.384       .  S
C426        F991   1.383       .  S
F429        C983   1.384       .  S
F431        C986   1.382       .  S
C433        C434   1.407       .  A
C433        C438   1.411       .  A
C433        H440   1.084       .  S
C434        C435   1.424       .  A
C435        C436   1.413       .  A
C435        C442   1.518       .  S
C436        C437   1.401       .  A
C436        H441   1.083       .  S
C437        C438   1.418       .  A
C438        C439   1.518       .  S
C439        F443   1.384       .  S
C439        F444   1.382       .  S
C439        F445   1.383       .  S
C442        F446   1.383       .  S
C442        F447   1.382       .  S
C442        F448   1.385       .  S
C449        C450   1.401       .  A
C449        C454   1.414       .  A
C449        H456   1.083       .  S
C450        C451   1.422       .  A
C451        C452   1.406       .  A
C451        C458   1.520       .  S
C452        C453   1.404       .  A
C452        H457   1.085       .  S
C453        C454   1.430       .  A
C454        C455   1.520       .  S
C455        F459   1.385       .  S
C455        F460   1.379       .  S
C455        F461   1.383       .  S
C458        F464   1.385       .  S
C458       F1022   1.382       .  S
C458       F1023   1.384       .  S
F462       C1018   1.382       .  S
F463       C1018   1.384       .  S
C465        C466   1.406       .  A
C465        C470   1.410       .  A
C465        H472   1.084       .  S
C466        C467   1.424       .  A
C467        C468   1.396       .  A
C467        C474   1.525       .  S
C468        C469   1.395       .  A
C468        H473   1.084       .  S
C469        C470   1.412       .  A
C470        C471   1.515       .  S
C471        F475   1.385       .  S
C471        F476   1.383       .  S
C471        F477   1.383       .  S
C474        F478   1.381       .  S
C474        F479   1.382       .  S
C474        F480   1.386       .  S
C481        C482   1.404       .  A
C481        C486   1.397       .  A
C481       H1608   1.082       .  S
C482       C1248   1.476       .  S
C482        C483   1.419       .  A
C483        C484   1.407       .  A
C483        C490   1.515       .  S
C484        C485   1.402       .  A
C484        H489   1.084       .  S
C485        C486   1.408       .  A
C486        C487   1.517       .  S
C487        F491   1.384       .  S
C487        F492   1.381       .  S
C487        F493   1.384       .  S
H488       C1601   1.080       .  S
C490        F494   1.383       .  S
C490        F495   1.379       .  S
C490        F496   1.384       .  S
C497        C498   1.405       .  A
C497        C502   1.416       .  A
C497        H504   1.083       .  S
C498        C499   1.426       .  A
C499        C500   1.419       .  A
C499        C506   1.519       .  S
C500        C501   1.406       .  A
C500        H505   1.083       .  S
C501        C502   1.425       .  A
C502        C503   1.520       .  S
C503        F507   1.385       .  S
C503        F508   1.383       .  S
C503        F509   1.382       .  S
C506        F510   1.383       .  S
C506        F511   1.383       .  S
C506        F512   1.385       .  S
C513        C514   1.404       .  A
C513        C518   1.410       .  A
C513        H520   1.083       .  S
C514        C515   1.417       .  A
C515        C516   1.409       .  A
C515        C522   1.516       .  S
C516        C517   1.402       .  A
C516        H521   1.084       .  S
C517        C518   1.416       .  A
C518        C519   1.519       .  S
C519        F523   1.384       .  S
C519        F524   1.384       .  S
C519        F525   1.382       .  S
C522        F526   1.381       .  S
C522        F527   1.383       .  S
C522        F528   1.385       .  S
C529        C530   1.408       .  A
C529        C534   1.405       .  A
C529        H536   1.084       .  S
C530        C531   1.417       .  A
C531        C532   1.421       .  A
C531        C538   1.514       .  S
C532        C533   1.411       .  A
C532        H537   1.083       .  S
C533        C534   1.413       .  A
C534        C535   1.518       .  S
C535        F539   1.383       .  S
C535        F540   1.383       .  S
C535        F541   1.383       .  S
C538        F542   1.379       .  S
C538        F543   1.383       .  S
C538        F544   1.384       .  S
C545        C546   1.408       .  A
C545        C550   1.414       .  A
C545        H552   1.084       .  S
C546        C547   1.413       .  A
C547        C548   1.405       .  A
C547        C554   1.516       .  S
C548        C549   1.405       .  A
C548        H553   1.084       .  S
C549        C550   1.416       .  A
C550        C551   1.516       .  S
C551        F555   1.385       .  S
C551        F556   1.383       .  S
C551        F557   1.383       .  S
C554        F558   1.382       .  S
C554        F559   1.382       .  S
C554        F560   1.385       .  S
O561       Cr579   1.996       .  S
O561        C569   1.257       .  A
O562       Cr579   1.965       .  S
O562        C563   1.260       .  A
C563        O564   1.264       .  A
C563       C1045   1.457       .  S
O564       Cr580   2.001       .  S
O565       Cr580   2.002       .  S
O565        C566   1.261       .  A
C566        O567   1.258       .  A
C566       C1109   1.479       .  S
O567       Cr581   1.979       .  S
O568       Cr581   1.991       .  S
O568        C569   1.260       .  A
C569       C1093   1.477       .  S
O570       Cr579   1.977       .  S
O570        C578   1.260       .  A
O571       Cr579   1.981       .  S
O571        C572   1.259       .  A
C572        O573   1.268       .  A
C572       C1074   1.481       .  S
O573       Cr580   2.006       .  S
O574       Cr580   2.028       .  S
O574        C575   1.272       .  A
C575        O576   1.265       .  A
C575       C1058   1.507       .  S
O576       Cr581   1.993       .  S
O577       Cr581   1.990       .  S
O577        C578   1.265       .  A
C578       C1029   1.465       .  S
Cr579       O582   1.780       .  S
Cr580       O582   1.783       .  S
Cr581       O582   1.771       .  S
O583       Cr601   1.997       .  S
O583        C591   1.257       .  A
O584       Cr601   1.952       .  S
O584        C585   1.256       .  A
C585        O586   1.269       .  A
C585        C962   1.469       .  S
O586       Cr602   2.016       .  S
O587       Cr602   2.011       .  S
O587        C588   1.262       .  A
C588        O589   1.254       .  A
C588       C1106   1.475       .  S
O589       Cr603   1.969       .  S
O590       Cr603   1.989       .  S
O590        C591   1.261       .  A
C591        C994   1.483       .  S
O592       Cr601   1.964       .  S
O592        C600   1.258       .  A
O593       Cr601   1.979       .  S
C594       C1010   1.495       .  S
O595       Cr602   2.006       .  S
O596       Cr602   2.034       .  S
O596        C597   1.273       .  A
C597        O598   1.263       .  A
C597        C981   1.503       .  S
O598       Cr603   1.976       .  S
O599       Cr603   1.996       .  S
O599        C600   1.263       .  A
C600        C946   1.457       .  S
Cr601       O604   1.778       .  S
Cr602       O604   1.779       .  S
Cr603       O604   1.771       .  S
O605       Cr623   2.003       .  S
O605        C613   1.258       .  A
O606       Cr623   1.965       .  S
O606        C607   1.261       .  A
C607        O608   1.265       .  A
C607        C898   1.457       .  S
O608       Cr624   2.001       .  S
O609       Cr624   1.997       .  S
O609        C610   1.259       .  A
C610        O611   1.254       .  A
C610        C933   1.469       .  S
O611       Cr625   1.967       .  S
O612       Cr625   2.007       .  S
O612        C613   1.267       .  A
C613       C1013   1.505       .  S
O614       Cr623   1.982       .  S
O614        C622   1.263       .  A
O615       Cr623   1.976       .  S
O615        C616   1.256       .  A
C616        O617   1.265       .  A
C616        C997   1.477       .  S
O617       Cr624   2.001       .  S
O618       Cr624   2.021       .  S
O618        C619   1.274       .  A
C619        O620   1.269       .  A
C619        C914   1.525       .  S
O620       Cr625   2.006       .  S
O621       Cr625   1.985       .  S
O621        C622   1.259       .  A
C622        C882   1.480       .  S
Cr623       O626   1.779       .  S
Cr624       O626   1.781       .  S
Cr625       O626   1.770       .  S
O627       Cr645   2.009       .  S
O627        C635   1.261       .  A
O628       Cr645   1.967       .  S
O628        C629   1.263       .  A
C629        O630   1.266       .  A
C629        C853   1.466       .  S
O630       Cr646   2.006       .  S
O631       Cr646   2.000       .  S
O631        C632   1.260       .  A
C632        O633   1.256       .  A
C632        C930   1.479       .  S
O633       Cr647   1.978       .  S
O634       Cr647   1.995       .  S
O634        C635   1.261       .  A
C635       C1077   1.489       .  S
O636       Cr645   1.982       .  S
O636        C644   1.261       .  A
O637        C638   1.258       .  A
C638        O639   1.265       .  A
C638       C1090   1.485       .  S
C641        O642   1.265       .  A
O642       Cr647   1.990       .  S
O643       Cr647   1.996       .  S
O643        C644   1.264       .  A
C644        C834   1.473       .  S
Cr645       O648   1.774       .  S
Cr646       O648   1.780       .  S
Cr647       O648   1.776       .  S
O649       Cr667   1.997       .  S
O649        C657   1.259       .  A
O650       Cr667   1.977       .  S
O650        C651   1.257       .  A
C651        O652   1.254       .  A
C651        C818   1.465       .  S
O652       Cr668   1.978       .  S
O653       Cr668   2.007       .  S
O653        C654   1.268       .  A
C654        O655   1.258       .  A
C654        C949   1.460       .  S
O655       Cr669   1.946       .  S
O656       Cr669   2.002       .  S
O656        C657   1.255       .  A
C657        C786   1.492       .  S
O658       Cr667   1.998       .  S
O658        C666   1.269       .  A
O659       Cr667   1.969       .  S
O659        C660   1.261       .  A
C660        O661   1.276       .  A
C660       C1989   1.501   1_545  S
O661       Cr668   2.035       .  S
O662       Cr668   2.014       .  S
C663        C805   1.495       .  S
O664       Cr669   1.988       .  S
O665       Cr669   1.972       .  S
O665        C666   1.263       .  A
C666       C2085   1.462   1_545  S
Cr667       O670   1.762       .  S
Cr668       O670   1.782       .  S
Cr669       O670   1.768       .  S
O671       Cr689   2.010       .  S
O671        C679   1.263       .  A
O672       Cr689   1.970       .  S
O672        C673   1.256       .  A
C673        O674   1.258       .  A
C673        C821   1.464       .  S
O674       Cr690   1.991       .  S
O675       Cr690   2.030       .  S
O675        C676   1.272       .  A
C676        O677   1.253       .  A
C676       C1026   1.475       .  S
O677       Cr691   1.948       .  S
O678       Cr691   2.010       .  S
O678        C679   1.259       .  A
C679        C770   1.503       .  S
O680       Cr689   2.004       .  S
O680        C688   1.269       .  A
O681       Cr689   1.988       .  S
O681        C682   1.266       .  A
C682        O683   1.278       .  A
C682       C2037   1.523   1_545  S
O683       Cr690   2.044       .  S
O684       Cr690   2.005       .  S
O684        C685   1.264       .  A
C685        O686   1.260       .  A
C685        C757   1.488       .  S
O686       Cr691   1.989       .  S
O687       Cr691   1.967       .  S
O687        C688   1.259       .  A
C688       C2162   1.473   1_545  S
Cr689       O692   1.764       .  S
Cr690       O692   1.783       .  S
Cr691       O692   1.768       .  S
O693       Cr711   1.979       .  S
O693        C701   1.258       .  A
O694       Cr711   1.981       .  S
O694        C695   1.259       .  A
C695        O696   1.262       .  A
C695        C738   1.478       .  S
O696       Cr712   2.001       .  S
O697       Cr712   2.017       .  S
O697        C698   1.268       .  A
C698        O699   1.259       .  A
C698        C885   1.469       .  S
O699       Cr713   1.953       .  S
O700       Cr713   2.003       .  S
O700        C701   1.256       .  A
C701        C802   1.489       .  S
O702       Cr711   1.995       .  S
O702        C710   1.265       .  A
O703       Cr711   1.989       .  S
O703        C704   1.263       .  A
C704        O705   1.272       .  A
C704       C1061   1.511       .  S
O705       Cr712   2.031       .  S
O706       Cr712   2.008       .  S
O706        C707   1.266       .  A
C707        O708   1.256       .  A
C707        C789   1.482       .  S
O708       Cr713   1.977       .  S
O709       Cr713   1.968       .  S
O709        C710   1.260       .  A
C710        C901   1.457       .  S
Cr711       O714   1.772       .  S
Cr712       O714   1.786       .  S
Cr713       O714   1.782       .  S
O715       Cr733   1.984       .  S
O715        C723   1.255       .  A
O716       Cr733   1.987       .  S
O716        C717   1.260       .  A
C717        O718   1.265       .  A
C717        C741   1.488       .  S
O718       Cr734   2.008       .  S
O719       Cr734   1.997       .  S
O719        C720   1.263       .  A
C720        O721   1.260       .  A
C720        C837   1.461       .  S
O721       Cr735   1.971       .  S
O722       Cr735   2.002       .  S
O722        C723   1.257       .  A
C723        C754   1.485       .  S
O724       Cr733   1.997       .  S
O724        C732   1.266       .  A
O725       Cr733   1.994       .  S
O725        C726   1.264       .  A
O728        C729   1.267       .  A
C729        O730   1.257       .  A
C729        C773   1.492       .  S
O731       Cr735   1.970       .  S
O731        C732   1.260       .  A
C732        C850   1.461       .  S
Cr733       O736   1.785       .  S
Cr734       O736   1.787       .  S
Cr735       O736   1.788       .  S
C737        C738   1.396       .  A
C737        C742   1.407       .  A
C737        H744   1.084       .  S
C738        C739   1.418       .  A
C739        C740   1.408       .  A
C739        C746   1.513       .  S
C740        C741   1.400       .  A
C740        H745   1.085       .  S
C741        C742   1.423       .  A
C742        C743   1.508       .  S
C743        F747   1.385       .  S
C743        F748   1.380       .  S
C743        F749   1.375       .  S
C746        F750   1.383       .  S
C746        F751   1.382       .  S
C746        F752   1.384       .  S
C753        C754   1.408       .  A
C753        C758   1.413       .  A
C753        H760   1.084       .  S
C754        C755   1.415       .  A
C755        C756   1.405       .  A
C755        C762   1.521       .  S
C756        C757   1.408       .  A
C756        H761   1.086       .  S
C757        C758   1.415       .  A
C758        C759   1.514       .  S
C759        F763   1.385       .  S
C759        F764   1.382       .  S
C759        F765   1.380       .  S
C762        F766   1.382       .  S
C762        F767   1.377       .  S
C762        F768   1.385       .  S
C769        C770   1.405       .  A
C769        C774   1.409       .  A
C769        H776   1.083       .  S
C770        C771   1.428       .  A
C771        C772   1.419       .  A
C771        C778   1.518       .  S
C772        C773   1.403       .  A
C772        H777   1.082       .  S
C773        C774   1.419       .  A
C774        C775   1.518       .  S
C775        F779   1.384       .  S
C775        F780   1.384       .  S
C775        F781   1.382       .  S
C778        F782   1.383       .  S
C778        F783   1.382       .  S
C778        F784   1.385       .  S
C785        C786   1.403       .  A
C785        C790   1.405       .  A
C785        H792   1.082       .  S
C786        C787   1.423       .  A
C787        C788   1.413       .  A
C787        C794   1.516       .  S
C788        C789   1.402       .  A
C788        H793   1.081       .  S
C789        C790   1.418       .  A
C790        C791   1.519       .  S
C791        F795   1.385       .  S
C791        F796   1.383       .  S
C791        F797   1.381       .  S
C794        F798   1.383       .  S
C794        F799   1.383       .  S
C794        F800   1.385       .  S
C801        C802   1.395       .  A
C801        C806   1.398       .  A
C801        H808   1.084       .  S
C802        C803   1.424       .  A
C803        C804   1.416       .  A
C803        C810   1.516       .  S
C804        C805   1.404       .  A
C804        H809   1.083       .  S
C805        C806   1.429       .  A
C806        C807   1.520       .  S
C807        F811   1.386       .  S
C810        F814   1.379       .  S
C810        F815   1.383       .  S
C810        F816   1.385       .  S
C817        C818   1.402       .  A
C817        C822   1.402       .  A
C817        H824   1.085       .  S
C818        C819   1.412   1_455  A
C819        C820   1.405       .  A
C819        C826   1.517       .  S
C820        C821   1.404       .  A
C820        H825   1.085       .  S
C821        C822   1.411   1_655  A
C822        C823   1.516       .  S
C823        F827   1.385       .  S
C823        F828   1.382       .  S
C823        F829   1.383       .  S
C826        F830   1.384       .  S
C826        F831   1.383       .  S
C826        F832   1.385       .  S
C833        C834   1.402       .  A
C833        C838   1.400       .  A
C833        H840   1.083       .  S
C834        C835   1.417   1_556  A
C835       C1956   1.405       .  A
C835        C842   1.514       .  S
C836       C1955   1.404   1_545  A
C836        C837   1.400   1_554  A
C836        H841   1.085       .  S
C837       C1958   1.408       .  A
C838       C1957   1.410       .  A
C838        C839   1.513       .  S
C839        F843   1.385       .  S
C839       F1964   1.381       .  S
C842        F846   1.385       .  S
C842        F847   1.384       .  S
C842       F1968   1.381       .  S
F844       C1959   1.378       .  S
F848       C1962   1.383       .  S
C849        C850   1.403       .  A
C849        C854   1.409       .  A
C849        H856   1.084       .  S
C850        C851   1.412   1_556  A
C851        C852   1.394   1_554  A
C851        C858   1.517       .  S
C852        C853   1.399       .  A
C852        H857   1.085   1_556  S
C853        C854   1.416       .  A
C854        C855   1.518       .  S
C855        F859   1.385       .  S
C855        F860   1.382       .  S
C855        F861   1.383       .  S
C858        F862   1.382       .  S
C858        F863   1.382   1_554  S
C858        F864   1.382       .  S
C865        C866   1.404       .  A
C865        C870   1.413   1_655  A
C865        H872   1.081       .  S
C867        C868   1.419   1_655  A
C867        C874   1.519       .  S
C868        H873   1.081       .  S
C869       C1780   1.512       .  S
C869        C870   1.430       .  A
C870       C1991   1.523       .  S
C871       C1990   1.523       .  S
C871        F875   1.385       .  S
C871        F876   1.384       .  S
C871        F877   1.382       .  S
C874        F878   1.383       .  S
C874        F879   1.384       .  S
C874        F880   1.384       .  S
C881        C882   1.405       .  A
C881        C886   1.406       .  A
C881        H888   1.083       .  S
C882        C883   1.426       .  A
C883       C2004   1.399       .  A
C883        C890   1.523       .  S
C884       C2003   1.400   1_545  A
C884        C885   1.398       .  A
C884        H889   1.083       .  S
C885       C2006   1.415       .  A
C886       C2005   1.417       .  A
C886        C887   1.518       .  S
C887        F891   1.385       .  S
C887       F2012   1.382       .  S
C887       F2013   1.382       .  S
C890        F894   1.380       .  S
C890        F895   1.383       .  S
C890       F2016   1.385       .  S
F892       C2007   1.382       .  S
F893       C2007   1.383       .  S
F896       C2010   1.385       .  S
C897        C898   1.397       .  A
C897        C902   1.398       .  A
C897        H904   1.086       .  S
C898        C899   1.410       .  A
C899        C900   1.404       .  A
C899        C906   1.518       .  S
C900        C901   1.404       .  A
C900        H905   1.083       .  S
C901        C902   1.417       .  A
C902        C903   1.520       .  S
C903        F907   1.384       .  S
C903        F908   1.380       .  S
C903        F909   1.383       .  S
C906        F910   1.382       .  S
C906        F911   1.384       .  S
C906        F912   1.384       .  S
C913        C914   1.410       .  A
C913        C918   1.416   1_455  A
C913        H920   1.081       .  S
C914        C915   1.428       .  A
C915       C2036   1.424       .  A
C915        C922   1.520       .  S
C916       C2035   1.423   1_545  A
C916       C2037   1.414   1_445  A
C916        H921   1.081       .  S
C917       C1802   1.524       .  S
C917       C2036   1.412   1_655  A
C917        C918   1.432       .  A
C918        C919   1.525       .  S
C919        F923   1.385       .  S
C919        F924   1.384       .  S
C919        F925   1.383       .  S
C922        F926   1.384       .  S
C922        F927   1.383       .  S
C922       F2048   1.384       .  S
F928       C2042   1.384   1_545  S
C929        C930   1.408       .  A
C929        C934   1.409       .  A
C929        H936   1.083       .  S
C930        C931   1.413   1_655  A
C931        C932   1.406       .  A
C931        C938   1.515       .  S
C932        C933   1.403       .  A
C932        H937   1.082       .  S
C933        C934   1.411   1_455  A
C934        C935   1.517       .  S
C935        F939   1.385       .  S
C935        F940   1.384       .  S
C935        F941   1.383       .  S
C938        F942   1.384       .  S
C938        F943   1.382       .  S
C938        F944   1.383       .  S
C945        C946   1.405       .  A
C945        C950   1.408       .  A
C945        H952   1.082       .  S
C946        C947   1.410       .  A
C947        C948   1.383       .  A
C947        C954   1.515       .  S
C948        C949   1.398       .  A
C948        H953   1.083       .  S
C949        C950   1.414       .  A
C950        C951   1.518       .  S
C951        F955   1.384       .  S
C951        F956   1.384       .  S
C951        F957   1.382       .  S
C954        F958   1.381       .  S
C954        F959   1.382       .  S
C954        F960   1.385       .  S
C961        C962   1.402       .  A
C961        C966   1.404       .  A
C961        H968   1.085       .  S
C962        C963   1.421       .  A
C963        C964   1.398       .  A
C963        C970   1.521       .  S
C964        C965   1.396       .  A
C964        H969   1.085       .  S
C965       C1786   1.463       .  S
C965        C966   1.414       .  A
C966       C2087   1.514       .  S
C967       C2086   1.515       .  S
C967        F971   1.384       .  S
C967        F972   1.380   1_565  S
C967        F973   1.383   1_565  S
C970        F974   1.382       .  S
C970        F975   1.382       .  S
C970        F976   1.385       .  S
C977        C978   1.410       .  A
C977        C982   1.418       .  A
C977        H984   1.083       .  S
C978        C979   1.422       .  A
C979        C980   1.415       .  A
C979        C986   1.519       .  S
C980        C981   1.407       .  A
C980        H985   1.083       .  S
C981        C982   1.420       .  A
C982        C983   1.518       .  S
C983        F987   1.382       .  S
C983        F988   1.384       .  S
C986        F990   1.381       .  S
C986        F992   1.384       .  S
C993        C994   1.403       .  A
C993        C998   1.404       .  A
C993       H1000   1.084       .  S
C994        C995   1.422       .  A
C995        C996   1.411       .  A
C995       C1002   1.520       .  S
C996        C997   1.403       .  A
C996       H1001   1.084       .  S
C997        C998   1.416       .  A
C998        C999   1.518       .  S
C999       F1003   1.385       .  S
C999       F1004   1.381       .  S
C999       F1005   1.383       .  S
C1002      F1006   1.384       .  S
C1002      F1007   1.383       .  S
C1002      F1008   1.385       .  S
C1009      C1010   1.402       .  A
C1009      C1014   1.417       .  A
C1009      H1016   1.081       .  S
C1010      C1011   1.420       .  A
C1011      C1012   1.405       .  A
C1011      C1018   1.518       .  S
C1012      C1013   1.405       .  A
C1012      H1017   1.081       .  S
C1013      C1014   1.433       .  A
C1014      C1015   1.520       .  S
C1015      F1019   1.385       .  S
C1015      F1020   1.379       .  S
C1015      F1021   1.384       .  S
C1018      F1024   1.385       .  S
C1025      C1026   1.406       .  A
C1025      C1030   1.409       .  A
C1025      H1032   1.084       .  S
C1026      C1027   1.425       .  A
C1027      C1028   1.394       .  A
C1027      C1034   1.526       .  S
C1028      C1029   1.395       .  A
C1028      H1033   1.085       .  S
C1029      C1030   1.413       .  A
C1030      C1031   1.516       .  S
C1031      F1035   1.385       .  S
C1031      F1036   1.381       .  S
C1031      F1037   1.383       .  S
C1034      F1038   1.382       .  S
C1034      F1039   1.384       .  S
C1034      F1040   1.385       .  S
C1041      C1042   1.402       .  A
C1041      C1046   1.396       .  A
C1041      H2168   1.082       .  S
C1042      C1808   1.464       .  S
C1042      C1043   1.416       .  A
C1043      C1044   1.404       .  A
C1043      C1050   1.519       .  S
C1044      C1045   1.401       .  A
C1044      H1049   1.084       .  S
C1045      C1046   1.409       .  A
C1046      C1047   1.518       .  S
C1047      F1051   1.383       .  S
C1047      F1052   1.380       .  S
C1047      F1053   1.385       .  S
H1048      C2161   1.082       .  S
C1050      F1054   1.384       .  S
C1050      F1055   1.383       .  S
C1050      F1056   1.385       .  S
C1057      C1058   1.406       .  A
C1057      C1062   1.417       .  A
C1057      H1064   1.082       .  S
C1058      C1059   1.424       .  A
C1059      C1060   1.418       .  A
C1059      C1066   1.520       .  S
C1060      C1061   1.408       .  A
C1060      H1065   1.083       .  S
C1061      C1062   1.427       .  A
C1062      C1063   1.521       .  S
C1063      F1067   1.385       .  S
C1063      F1068   1.383       .  S
C1063      F1069   1.383       .  S
C1066      F1070   1.382       .  S
C1066      F1071   1.384       .  S
C1066      F1072   1.384       .  S
C1073      C1074   1.402       .  A
C1073      C1078   1.413       .  A
C1073      H1080   1.083       .  S
C1074      C1075   1.418       .  A
C1075      C1076   1.407       .  A
C1075      C1082   1.516       .  S
C1076      C1077   1.403       .  A
C1076      H1081   1.085       .  S
C1077      C1078   1.421       .  A
C1078      C1079   1.517       .  S
C1079      F1083   1.385       .  S
C1079      F1084   1.383       .  S
C1079      F1085   1.382       .  S
C1082      F1086   1.382       .  S
C1082      F1087   1.384       .  S
C1082      F1088   1.385       .  S
C1089      C1090   1.409       .  A
C1089      C1094   1.405       .  A
C1089      H1096   1.083       .  S
C1090      C1091   1.414       .  A
C1091      C1092   1.413       .  A
C1091      C1098   1.511       .  S
C1092      C1093   1.406       .  A
C1092      H1097   1.083       .  S
C1093      C1094   1.410       .  A
C1094      C1095   1.519       .  S
C1095      F1099   1.383       .  S
C1095      F1100   1.382       .  S
C1095      F1101   1.384       .  S
C1098      F1102   1.377       .  S
C1098      F1103   1.383       .  S
C1098      F1104   1.384       .  S
C1105      C1106   1.407       .  A
C1105      C1110   1.412       .  A
C1105      H1112   1.084       .  S
C1106      C1107   1.411       .  A
C1107      C1108   1.406       .  A
C1107      C1114   1.515       .  S
C1108      C1109   1.405       .  A
C1108      H1113   1.084       .  S
C1109      C1110   1.413       .  A
C1110      C1111   1.515       .  S
C1111      F1115   1.384       .  S
C1111      F1116   1.383       .  S
C1111      F1117   1.383       .  S
C1114      F1118   1.383       .  S
C1114      F1119   1.383       .  S
C1114      F1120   1.385       .  S
O1121     Cr1139   1.997       .  S
O1121      C1129   1.256       .  A
O1122     Cr1139   1.963       .  S
O1122      C1123   1.260       .  A
C1123      O1124   1.265       .  A
C1123      C1605   1.455       .  S
O1124     Cr1140   2.000       .  S
O1125     Cr1140   1.998       .  S
O1125      C1126   1.261       .  A
C1126      O1127   1.259       .  A
C1126      C1669   1.477       .  S
O1127     Cr1141   1.978       .  S
O1128     Cr1141   1.988       .  S
O1128      C1129   1.258       .  A
C1129      C1653   1.480       .  S
O1130     Cr1139   1.972       .  S
O1130      C1138   1.260       .  A
O1131     Cr1139   1.984       .  S
O1131      C1132   1.258       .  A
C1132      O1133   1.268       .  A
C1132      C1634   1.482       .  S
O1133     Cr1140   2.009       .  S
O1134     Cr1140   2.025       .  S
O1134      C1135   1.271       .  A
C1135      O1136   1.265       .  A
C1135      C1618   1.511       .  S
O1136     Cr1141   1.995       .  S
O1137     Cr1141   1.994       .  S
O1137      C1138   1.267       .  A
C1138      C1589   1.461       .  S
Cr1139     O1142   1.782       .  S
Cr1140     O1142   1.782       .  S
Cr1141     O1142   1.771       .  S
O1143     Cr1161   2.007       .  S
O1143      C1151   1.262       .  A
O1144     Cr1161   1.959       .  S
O1144      C1145   1.257       .  A
C1145      O1146   1.266       .  A
C1145      C1522   1.475       .  S
O1146     Cr1162   2.009       .  S
O1147     Cr1162   2.010       .  S
O1147      C1148   1.262       .  A
C1148      O1149   1.252       .  A
C1148      C1666   1.471       .  S
O1149     Cr1163   1.965       .  S
O1150     Cr1163   2.000       .  S
O1150      C1151   1.262       .  A
C1151      C1554   1.486       .  S
O1152     Cr1161   1.977       .  S
O1152      C1160   1.260       .  A
O1153     Cr1161   1.988       .  S
O1153      C1714   1.260   1_554  A
C1154      O1713   1.255       .  A
C1154      O1715   1.263       .  A
C1154      C1570   1.484       .  S
O1155     Cr1162   2.006   1_556  S
O1155      C1714   1.268       .  A
O1156     Cr1162   2.031       .  S
O1156      C1157   1.272       .  A
C1157      O1158   1.267       .  A
C1157      C1541   1.509       .  S
O1158     Cr1163   1.984       .  S
O1159     Cr1163   1.997       .  S
O1159      C1160   1.261       .  A
C1160      C1506   1.470       .  S
Cr1161     O1164   1.772       .  S
Cr1162     O1164   1.781       .  S
Cr1163     O1164   1.770       .  S
O1165     Cr1183   1.993       .  S
O1165      C1173   1.256       .  A
O1166     Cr1183   1.969       .  S
O1166      C1167   1.262       .  A
C1167      O1168   1.266       .  A
C1167      C1458   1.462       .  S
O1168     Cr1184   2.005       .  S
O1169     Cr1184   2.000       .  S
O1169      C1170   1.259       .  A
C1170      O1171   1.253       .  A
C1170      C1493   1.469       .  S
O1171     Cr1185   1.967       .  S
O1172     Cr1185   2.006       .  S
O1172      C1173   1.264       .  A
C1173      C1573   1.499       .  S
O1174     Cr1183   1.975       .  S
O1174      C1182   1.263       .  A
O1175     Cr1183   1.978       .  S
O1175      C1176   1.256       .  A
C1176      O1177   1.266       .  A
C1176      C1557   1.481       .  S
O1177     Cr1184   2.007       .  S
O1178     Cr1184   2.029       .  S
O1178      C1179   1.275       .  A
C1179      O1180   1.269       .  A
C1179      C1474   1.526       .  S
O1180     Cr1185   2.002       .  S
O1181     Cr1185   1.994       .  S
O1181      C1182   1.261       .  A
C1182      C1442   1.486       .  S
Cr1183     O1186   1.780       .  S
Cr1184     O1186   1.782       .  S
Cr1185     O1186   1.776       .  S
O1187     Cr1205   2.012       .  S
O1187      C1195   1.262       .  A
O1188     Cr1205   1.967       .  S
O1188      C1189   1.262       .  A
C1189      O1190   1.266       .  A
C1189      C1413   1.465       .  S
O1190     Cr1206   2.006       .  S
O1191     Cr1206   1.989       .  S
O1191      C1192   1.256       .  A
C1192      O1193   1.259       .  A
C1192      C1490   1.473       .  S
O1193     Cr1207   1.983       .  S
O1194     Cr1207   1.988       .  S
O1194      C1195   1.260       .  A
C1195      C1637   1.486       .  S
O1196     Cr1205   1.980       .  S
O1196      C1204   1.261       .  A
O1197     Cr1765   1.977   1_554  S
O1197      C1198   1.258       .  A
C1198      O1199   1.266       .  A
C1198      C1650   1.489       .  S
O1199     Cr1766   2.007   1_554  S
O1200     Cr1766   2.034       .  S
O1200      C1761   1.276       .  A
C1201      O1760   1.275       .  A
C1201      O1202   1.261       .  A
C1201      C1986   1.501       .  S
O1202     Cr1207   1.977       .  S
O1203     Cr1207   2.001       .  S
O1203      C1204   1.266       .  A
C1204      C1394   1.480       .  S
Cr1205     O1757   1.988       .  S
Cr1205     O1208   1.768       .  S
Cr1206     O1759   2.006       .  S
Cr1206     O1760   2.030       .  S
Cr1206     O1208   1.782       .  S
Cr1207     O1208   1.769       .  S
O1209     Cr1227   2.010       .  S
O1209      C1217   1.261       .  A
O1210     Cr1227   1.974       .  S
O1210      C1211   1.257       .  A
C1211      O1212   1.253       .  A
C1211      C1378   1.457       .  S
O1212     Cr1228   1.971       .  S
O1213     Cr1228   2.026       .  S
O1213      C1214   1.273       .  A
C1214      O1215   1.257       .  A
C1214      C1509   1.471       .  S
O1215     Cr1229   1.942       .  S
O1216     Cr1229   2.008       .  S
O1216      C1217   1.255       .  A
C1217      C1346   1.499       .  S
O1218     Cr1227   2.003       .  S
O1218      C1226   1.271       .  A
O1219     Cr1227   1.984       .  S
O1219      C1220   1.264       .  A
C1220      O1221   1.276       .  A
O1221     Cr1228   2.038       .  S
O1222     Cr1228   2.003   1_556  S
O1222      C1783   1.264       .  A
C1223      O1782   1.268       .  A
C1223      O1784   1.254       .  A
C1223      C1365   1.506       .  S
O1224     Cr1229   1.997       .  S
O1224      C1783   1.258   1_554  A
O1225     Cr1229   1.958       .  S
O1225      C1226   1.261       .  A
Cr1227     O1230   1.764       .  S
Cr1228     O1230   1.780       .  S
Cr1229     O1230   1.770       .  S
O1231     Cr1249   2.004       .  S
O1231      C1239   1.263       .  A
O1232     Cr1249   1.977       .  S
O1232      C1233   1.258       .  A
C1233      O1234   1.256       .  A
C1233      C1381   1.462       .  S
O1234     Cr1250   1.986       .  S
O1235     Cr1250   2.025       .  S
O1235      C1236   1.270       .  A
C1236      O1237   1.253       .  A
C1236      C1586   1.471       .  S
O1237     Cr1251   1.950       .  S
O1238     Cr1251   2.024       .  S
O1238      C1239   1.265       .  A
C1239      C1330   1.505       .  S
O1240     Cr1249   2.003       .  S
O1240      C1248   1.267       .  A
O1241     Cr1249   1.986       .  S
O1241      C1242   1.265       .  A
C1242      O1243   1.276       .  A
O1243     Cr1250   2.039       .  S
O1244     Cr1250   1.998       .  S
O1244      C1245   1.263       .  A
C1245      O1246   1.265       .  A
C1245      C1317   1.486       .  S
O1246     Cr1251   2.002       .  S
O1247     Cr1251   1.971       .  S
O1247      C1248   1.258       .  A
Cr1249     O1252   1.762       .  S
Cr1250     O1252   1.781       .  S
Cr1251     O1252   1.765       .  S
O1253     Cr1271   1.984       .  S
O1253      C1261   1.259       .  A
O1254     Cr1271   1.976       .  S
O1254      C1255   1.257       .  A
C1255      O1256   1.262       .  A
C1255      C1298   1.477       .  S
O1256     Cr1272   2.003       .  S
O1257     Cr1272   2.010       .  S
O1257      C1258   1.267       .  A
C1258      O1259   1.262       .  A
C1258      C1445   1.472       .  S
O1259     Cr1273   1.959       .  S
O1260     Cr1273   2.005       .  S
O1260      C1261   1.256       .  A
C1261      C1362   1.496       .  S
O1262     Cr1271   1.993       .  S
O1262      C1270   1.265       .  A
O1263     Cr1271   1.991       .  S
O1263      C1264   1.264       .  A
C1264      O1265   1.273       .  A
C1264      C1621   1.513       .  S
O1265     Cr1272   2.030       .  S
O1266     Cr1272   2.015       .  S
O1266      C1267   1.268       .  A
C1267      O1268   1.254       .  A
C1267      C1349   1.486       .  S
O1268     Cr1273   1.973       .  S
O1269     Cr1273   1.973       .  S
O1269      C1270   1.261       .  A
C1270      C1461   1.460       .  S
Cr1271     O1274   1.773       .  S
Cr1272     O1274   1.784       .  S
Cr1273     O1274   1.781       .  S
O1275     Cr1293   1.979       .  S
O1275      C1283   1.254       .  A
O1276     Cr1293   1.982       .  S
O1276      C1277   1.259       .  A
C1277      O1278   1.265       .  A
C1277      C1301   1.487       .  S
O1278     Cr1294   2.008       .  S
O1279     Cr1294   1.998       .  S
O1279      C1280   1.265       .  A
C1280      O1281   1.263       .  A
C1280      C1397   1.463       .  S
O1281     Cr1295   1.976       .  S
O1282     Cr1295   1.997       .  S
O1282      C1283   1.255       .  A
C1283      C1314   1.479       .  S
O1284     Cr1293   1.995       .  S
O1284      C1292   1.265       .  A
O1285     Cr1293   1.979       .  S
O1285      C1286   1.262       .  A
C1286      O1847   1.266       .  A
C1286      C2098   1.494       .  S
O1287     Cr1854   2.026   1_554  S
O1287      C1846   1.269   1_554  A
O1288     Cr1854   2.020   1_554  S
O1288      C1289   1.268       .  A
C1289      O1290   1.257       .  A
C1289      C1333   1.496       .  S
O1290     Cr1855   1.989   1_554  S
O1291     Cr1295   1.981       .  S
O1291      C1292   1.263       .  A
C1292      C1410   1.466       .  S
Cr1293     O1296   1.781       .  S
Cr1294     O1847   2.014       .  S
Cr1294     O1848   2.013       .  S
Cr1294     O1296   1.790       .  S
Cr1295     O1850   1.986       .  S
Cr1295     O1296   1.786       .  S
C1297      C1298   1.395       .  A
C1297      C1302   1.406       .  A
C1297      H1304   1.084       .  S
C1298      C1299   1.419       .  A
C1299      C1300   1.408       .  A
C1299      C1306   1.512       .  S
C1300      C1301   1.401       .  A
C1300      H1305   1.084       .  S
C1301      C1302   1.423       .  A
C1302      C1303   1.511       .  S
C1303      F1307   1.385       .  S
C1303      F1308   1.381       .  S
C1303      F1309   1.379       .  S
C1306      F1310   1.383       .  S
C1306      F1311   1.381       .  S
C1306      F1312   1.384       .  S
C1313      C1314   1.404       .  A
C1313      C1318   1.410       .  A
C1313      H1320   1.098       .  S
C1314      C1315   1.412       .  A
C1315      C1316   1.404       .  A
C1315      C1322   1.519       .  S
C1316      C1317   1.407       .  A
C1316      H1321   1.094       .  S
C1317      C1318   1.417       .  A
C1318      C1319   1.513       .  S
C1319      F1323   1.386       .  S
C1319      F1324   1.382       .  S
C1319      F1325   1.378       .  S
C1322      F1326   1.383       .  S
C1322      F1327   1.379       .  S
C1322      F1328   1.385       .  S
C1329      C1330   1.406       .  A
C1329      C1334   1.414       .  A
C1329      H1336   1.082       .  S
C1330      C1331   1.425       .  A
C1331      C1332   1.417       .  A
C1331      C1338   1.516       .  S
C1332      C1333   1.403       .  A
C1332      H1337   1.082       .  S
C1333      C1334   1.422       .  A
C1334      C1335   1.521       .  S
C1335      F1339   1.385       .  S
C1335      F1340   1.384       .  S
C1335      F1341   1.381       .  S
C1338      F1342   1.382       .  S
C1338      F1343   1.382       .  S
C1338      F1344   1.385       .  S
C1345      C1346   1.404       .  A
C1345      C1350   1.409       .  A
C1345      H1352   1.083       .  S
C1346      C1347   1.425       .  A
C1347      C1348   1.413       .  A
C1347      C1354   1.512       .  S
C1348      C1349   1.400       .  A
C1348      H1353   1.082       .  S
C1349      C1350   1.420       .  A
C1350      C1351   1.517       .  S
C1351      F1355   1.385       .  S
C1351      F1356   1.382       .  S
C1351      F1357   1.381       .  S
C1354      F1358   1.379       .  S
C1354      F1359   1.384       .  S
C1354      F1360   1.385       .  S
C1361      C1362   1.393       .  A
C1361      C1366   1.398       .  A
C1361      H1368   1.083       .  S
C1362      C1363   1.426       .  A
C1363      C1364   1.420       .  A
C1363      C1370   1.516       .  S
C1364      C1365   1.407       .  A
C1364      H1369   1.083       .  S
C1365      C1366   1.434       .  A
C1366      C1367   1.520       .  S
C1367      F1371   1.385       .  S
C1367      F1932   1.383       .  S
C1367      F1933   1.375       .  S
C1370      F1374   1.380       .  S
C1370      F1375   1.383       .  S
C1370      F1376   1.385       .  S
F1372      C1927   1.382       .  S
F1373      C1927   1.378       .  S
C1377      C1378   1.401       .  A
C1377      C1382   1.402       .  A
C1377      H1384   1.084       .  S
C1378      C1379   1.410   1_455  A
C1379      C1380   1.401       .  A
C1379      C1386   1.518       .  S
C1380      C1381   1.404       .  A
C1380      H1385   1.083       .  S
C1381      C1382   1.412   1_655  A
C1382      C1383   1.516       .  S
C1383      F1387   1.385       .  S
C1383      F1388   1.383       .  S
C1383      F1389   1.382       .  S
C1386      F1390   1.383       .  S
C1386      F1391   1.383       .  S
C1386      F1392   1.385       .  S
C1393      C1394   1.405       .  A
C1393      C1398   1.401   1_565  A
C1393      H1400   1.081       .  S
C1394      C1395   1.418       .  A
C1395      C1402   1.512       .  S
C1396      C1397   1.399       .  A
C1396      H1401   1.084       .  S
C1398      C1399   1.515       .  S
C1399      F1403   1.384       .  S
C1399      F1965   1.383       .  S
C1402      F1406   1.385       .  S
C1402      F1407   1.383       .  S
F1405      C1959   1.383       .  S
C1409      C1410   1.404       .  A
C1409      C1414   1.411       .  A
C1409      H1416   1.083       .  S
C1410      C1411   1.415       .  A
C1411      C1412   1.393       .  A
C1411      C1418   1.513       .  S
C1412      C1413   1.396       .  A
C1412      H1417   1.085       .  S
C1413      C1414   1.415       .  A
C1414      C1415   1.516       .  S
C1415      F1419   1.384       .  S
C1415      F1420   1.382       .  S
C1415      F1421   1.384       .  S
C1418      F1422   1.380       .  S
C1418      F1423   1.383       .  S
C1418      F1424   1.383       .  S
C1425      C1426   1.403   1_554  A
C1425      C1430   1.413   1_655  A
C1425      H1432   1.082       .  S
C1426      C1761   1.508       .  S
C1426      C1987   1.428       .  A
C1427      C1986   1.427       .  A
C1427      C1428   1.415   1_665  A
C1427      C1434   1.521       .  S
C1428      C1989   1.405   1_545  A
C1428      H1433   1.081       .  S
C1429      C1988   1.408   1_564  A
C1429      C1430   1.428       .  A
C1431      F1435   1.385       .  S
C1431      F1436   1.383       .  S
C1431      F1437   1.382       .  S
C1434      F1438   1.384       .  S
C1434      F1439   1.383       .  S
C1434      F1440   1.385   1_565  S
C1441      C1442   1.408       .  A
C1441      C1446   1.405   1_565  A
C1441      H1448   1.082       .  S
C1442      C1443   1.427       .  A
C1443      C1450   1.524       .  S
C1444      C1445   1.397       .  A
C1444      H1449   1.084       .  S
C1446      C1447   1.517       .  S
C1447      F1451   1.385   1_545  S
C1450      F1454   1.379       .  S
C1450      F1455   1.383       .  S
C1457      C1458   1.400       .  A
C1457      C1462   1.402       .  A
C1457      H1464   1.086       .  S
C1458      C1459   1.410       .  A
C1459      C1460   1.402       .  A
C1459      C1466   1.516       .  S
C1460      C1461   1.402       .  A
C1460      H1465   1.084       .  S
C1461      C1462   1.420       .  A
C1462      C1463   1.521       .  S
C1463      F1467   1.383       .  S
C1463      F1468   1.380       .  S
C1463      F1469   1.384       .  S
C1466      F1470   1.382       .  S
C1466      F1471   1.383       .  S
C1466      F1472   1.384       .  S
C1473      C1474   1.411   1_655  A
C1473      C1478   1.419       .  A
C1473      H1480   1.081       .  S
C1474      C1475   1.428       .  A
C1475      C1482   1.521       .  S
C1476      H1481   1.082       .  S
C1477      C1478   1.431       .  A
C1478      C1479   1.523       .  S
C1479      F1483   1.385       .  S
C1479      F1484   1.383       .  S
C1479      F1485   1.382       .  S
C1482      F1486   1.384       .  S
C1482      F1487   1.384       .  S
C1489      C1490   1.402       .  A
C1489      C1494   1.401       .  A
C1489      H1496   1.084       .  S
C1490      C1491   1.413   1_655  A
C1491      C1492   1.410       .  A
C1491      C1498   1.517       .  S
C1492      C1493   1.407       .  A
C1492      H1497   1.084       .  S
C1493      C1494   1.411   1_455  A
C1494      C1495   1.515       .  S
C1495      F1499   1.385       .  S
C1495      F1500   1.383       .  S
C1495      F1501   1.381       .  S
C1498      F1502   1.383       .  S
C1498      F1503   1.383       .  S
C1498      F1504   1.383       .  S
C1505      C1506   1.407       .  A
C1505      C1510   1.410       .  A
C1505      H1512   1.082       .  S
C1506      C1507   1.416       .  A
C1507      C1508   1.389       .  A
C1507      C1514   1.520       .  S
C1508      C1509   1.401       .  A
C1508      H1513   1.082       .  S
C1509      C1510   1.414       .  A
C1510      C1511   1.517       .  S
C1511      F1515   1.384       .  S
C1511      F1516   1.384       .  S
C1511      F1517   1.382       .  S
C1514      F1518   1.381       .  S
C1514      F1519   1.380       .  S
C1514      F1520   1.385       .  S
C1521      C1522   1.407       .  A
C1521      C1526   1.408       .  A
C1521      H1528   1.085       .  S
C1522      C1523   1.421       .  A
C1523      C1524   1.396       .  A
C1523      C1530   1.522       .  S
C1524      C1525   1.397       .  A
C1524      H1529   1.085       .  S
C1525      C1526   1.413       .  A
C1527      F1531   1.384       .  S
C1527      F1532   1.376       .  S
C1527      F1533   1.382       .  S
C1530      F1534   1.383       .  S
C1530      F1535   1.382       .  S
C1530      F1536   1.385       .  S
C1537      C1538   1.410   1_556  A
C1537      C1542   1.417       .  A
C1537      H1544   1.083       .  S
C1538      C1846   1.509   1_554  S
C1538      C1539   1.421       .  A
C1539      C1540   1.415       .  A
C1539      C1546   1.517       .  S
C1540      C1541   1.409       .  A
C1540      H1545   1.083       .  S
C1541      C1542   1.424   1_554  A
C1542      C1543   1.520       .  S
C1543      F1547   1.383       .  S
C1543      F1548   1.383       .  S
C1543      F2109   1.385       .  S
C1546      F1550   1.383       .  S
C1546      F2111   1.382       .  S
C1546      F1552   1.385       .  S
F1549      C2103   1.385       .  S
F1551      C2106   1.382       .  S
C1553      C1554   1.405       .  A
C1553      C1558   1.413       .  A
C1553      H1560   1.083       .  S
C1554      C1555   1.417       .  A
C1555      C1556   1.410       .  A
C1555      C1562   1.518       .  S
C1556      C1557   1.404       .  A
C1556      H1561   1.083       .  S
C1557      C1558   1.416       .  A
C1558      C1559   1.516       .  S
C1559      F1563   1.385       .  S
C1559      F1564   1.382       .  S
C1559      F1565   1.383       .  S
C1562      F1566   1.384       .  S
C1562      F1567   1.382       .  S
C1562      F1568   1.385       .  S
C1569      C1570   1.400       .  A
C1569      C1574   1.412       .  A
C1569      H1576   1.082       .  S
C1570      C1571   1.418       .  A
C1571      C1572   1.405       .  A
C1571      C1578   1.518       .  S
C1572      C1573   1.405       .  A
C1572      H1577   1.083       .  S
C1573      C1574   1.430       .  A
C1574      C1575   1.520       .  S
C1575      F1579   1.385       .  S
C1575      F1580   1.379       .  S
C1575      F1581   1.383       .  S
C1578      F2142   1.382       .  S
C1578      F2143   1.384       .  S
C1578      F1584   1.384       .  S
F1582      C2138   1.381       .  S
F1583      C2138   1.384       .  S
C1585      C1586   1.406       .  A
C1585      C1590   1.409       .  A
C1585      H1592   1.083       .  S
C1586      C1587   1.422       .  A
C1587      C1588   1.392       .  A
C1587      C1594   1.524       .  S
C1588      C1589   1.394       .  A
C1588      H1593   1.083       .  S
C1589      C1590   1.413       .  A
C1590      C1591   1.516       .  S
C1591      F1595   1.385       .  S
C1591      F1596   1.382       .  S
C1591      F1597   1.383       .  S
C1594      F1598   1.381       .  S
C1594      F1599   1.383       .  S
C1594      F1600   1.385       .  S
C1601      C1602   1.403       .  A
C1601      C1606   1.396       .  A
C1602      C1603   1.416       .  A
C1603      C1604   1.402       .  A
C1603      C1610   1.517       .  S
C1604      C1605   1.401       .  A
C1604      H1609   1.083       .  S
C1605      C1606   1.409       .  A
C1606      C1607   1.519       .  S
C1607      F1611   1.383       .  S
C1607      F1612   1.380       .  S
C1607      F1613   1.385       .  S
C1610      F1614   1.383   1_565  S
C1610      F1615   1.383       .  S
C1610      F1616   1.385       .  S
C1617      C1618   1.406       .  A
C1617      C1622   1.417       .  A
C1617      H1624   1.083       .  S
C1618      C1619   1.426       .  A
C1619      C1620   1.418       .  A
C1619      C1626   1.520       .  S
C1620      C1621   1.408       .  A
C1620      H1625   1.083       .  S
C1621      C1622   1.428       .  A
C1622      C1623   1.520       .  S
C1623      F1627   1.385       .  S
C1623      F1628   1.383       .  S
C1623      F1629   1.383       .  S
C1626      F1630   1.382       .  S
C1626      F1631   1.384       .  S
C1626      F1632   1.385       .  S
C1633      C1634   1.403       .  A
C1633      C1638   1.412       .  A
C1633      H1640   1.083       .  S
C1634      C1635   1.419       .  A
C1635      C1636   1.408       .  A
C1635      C1642   1.518       .  S
C1636      C1637   1.402       .  A
C1636      H1641   1.084       .  S
C1637      C1638   1.420       .  A
C1638      C1639   1.518       .  S
C1639      F1643   1.384       .  S
C1639      F1644   1.383       .  S
C1639      F1645   1.382       .  S
C1642      F1646   1.382       .  S
C1642      F1647   1.383       .  S
C1642      F1648   1.385       .  S
C1649      C1650   1.410       .  A
C1649      C1654   1.403       .  A
C1649      H1656   1.083       .  S
C1650      C1651   1.417       .  A
C1651      C1652   1.414       .  A
C1651      C1658   1.515       .  S
C1652      C1653   1.407       .  A
C1652      H1657   1.083       .  S
C1653      C1654   1.411       .  A
C1654      C1655   1.521       .  S
C1655      F1659   1.383       .  S
C1655      F1660   1.382       .  S
C1655      F1661   1.384       .  S
C1658      F1662   1.381       .  S
C1658      F1663   1.381       .  S
C1658      F1664   1.385       .  S
C1665      C1666   1.407       .  A
C1665      C1670   1.411       .  A
C1665      H1672   1.084       .  S
C1666      C1667   1.411       .  A
C1667      C1668   1.405       .  A
C1667      C1674   1.517       .  S
C1668      C1669   1.405       .  A
C1668      H1673   1.084       .  S
C1669      C1670   1.414       .  A
C1670      C1671   1.517       .  S
C1671      F1675   1.385       .  S
C1671      F1676   1.383       .  S
C1671      F1677   1.384       .  S
C1674      F1678   1.383       .  S
C1674      F1679   1.383       .  S
C1674      F1680   1.384       .  S
O1681     Cr1699   1.996       .  S
O1681      C1689   1.257       .  A
O1682     Cr1699   1.971       .  S
O1682      C1683   1.262       .  A
C1683      O1684   1.265       .  A
C1683      C2165   1.463       .  S
O1684     Cr1700   2.005       .  S
O1685     Cr1700   1.996       .  S
O1685      C1686   1.259       .  A
C1686      O1687   1.258       .  A
C1686      C2229   1.477       .  S
O1687     Cr1701   1.975       .  S
O1688     Cr1701   1.995       .  S
O1688      C1689   1.260       .  A
C1689      C2213   1.480       .  S
O1690     Cr1699   1.982       .  S
O1690      C1698   1.262       .  A
O1691     Cr1699   1.977       .  S
O1691      C1692   1.257       .  A
C1692      O1693   1.268       .  A
C1692      C2194   1.480       .  S
O1693     Cr1700   2.006       .  S
O1694     Cr1700   2.036       .  S
O1694      C1695   1.273       .  A
C1695      O1696   1.266       .  A
C1695      C2178   1.516       .  S
O1696     Cr1701   1.999       .  S
O1697     Cr1701   1.989       .  S
O1697      C1698   1.265       .  A
C1698      C2149   1.467       .  S
Cr1699     O1702   1.779       .  S
Cr1700     O1702   1.783       .  S
Cr1701     O1702   1.773       .  S
O1703     Cr1721   2.001       .  S
O1703      C1711   1.257       .  A
O1704     Cr1721   1.959       .  S
O1704      C1705   1.260       .  A
C1705      O1706   1.269       .  A
C1705      C2082   1.469       .  S
O1706     Cr1722   2.011       .  S
O1707     Cr1722   1.998       .  S
O1707      C1708   1.260       .  A
C1708      O1709   1.256       .  A
C1708      C2226   1.468       .  S
O1709     Cr1723   1.970       .  S
O1710     Cr1723   2.003       .  S
O1710      C1711   1.263       .  A
C1711      C2114   1.496       .  S
O1712     Cr1721   1.966       .  S
O1712      C1720   1.259       .  A
O1713     Cr1721   1.976       .  S
C1714      C2130   1.496       .  S
O1715     Cr1722   1.999       .  S
O1716     Cr1722   2.022       .  S
O1716      C1717   1.270       .  A
C1717      O1718   1.263       .  A
C1717      C2101   1.499       .  S
O1718     Cr1723   1.979       .  S
O1719     Cr1723   2.002       .  S
O1719      C1720   1.265       .  A
C1720      C2066   1.463       .  S
Cr1721     O1724   1.776       .  S
Cr1722     O1724   1.784       .  S
Cr1723     O1724   1.773       .  S
O1725     Cr1743   2.001       .  S
O1725      C1733   1.258       .  A
O1726     Cr1743   1.965       .  S
O1726      C1727   1.260       .  A
C1727      O1728   1.265       .  A
C1727      C2018   1.458       .  S
O1728     Cr1744   2.001       .  S
O1729     Cr1744   1.998       .  S
O1729      C1730   1.258       .  A
C1730      O1731   1.254       .  A
C1730      C2053   1.469       .  S
O1731     Cr1745   1.968       .  S
O1732     Cr1745   2.010       .  S
O1732      C1733   1.267       .  A
C1733      C2133   1.506       .  S
O1734     Cr1743   1.981       .  S
O1734      C1742   1.262       .  A
O1735     Cr1743   1.979       .  S
O1735      C1736   1.257       .  A
C1736      O1737   1.267       .  A
C1736      C2117   1.483       .  S
O1737     Cr1744   2.006       .  S
O1738     Cr1744   2.027       .  S
O1738      C1739   1.275       .  A
C1739      O1740   1.268       .  A
C1739      C2034   1.520       .  S
O1740     Cr1745   2.000       .  S
O1741     Cr1745   1.984       .  S
O1741      C1742   1.258       .  A
C1742      C2002   1.482       .  S
Cr1743     O1746   1.775       .  S
Cr1744     O1746   1.779       .  S
Cr1745     O1746   1.770       .  S
O1747     Cr1765   2.003       .  S
O1747      C1755   1.259       .  A
O1748     Cr1765   1.958       .  S
O1748      C1749   1.260       .  A
C1749      O1750   1.268       .  A
C1749      C1973   1.460       .  S
O1750     Cr1766   2.009       .  S
O1751     Cr1766   1.990       .  S
O1751      C1752   1.257       .  A
C1752      O1753   1.256       .  A
C1752      C2050   1.469       .  S
O1753     Cr1767   1.976       .  S
O1754     Cr1767   1.992       .  S
O1754      C1755   1.260       .  A
C1755      C2197   1.484       .  S
O1756     Cr1765   1.968       .  S
O1756      C1764   1.258       .  A
O1757      C1758   1.262       .  A
C1758      O1759   1.266       .  A
C1758      C2210   1.486       .  S
C1761      O1762   1.264       .  A
O1762     Cr1767   1.984       .  S
O1763     Cr1767   1.997       .  S
O1763      C1764   1.267       .  A
C1764      C1954   1.473       .  S
Cr1765     O1768   1.773       .  S
Cr1766     O1768   1.778       .  S
Cr1767     O1768   1.770       .  S
O1769     Cr1787   2.003       .  S
O1769      C1777   1.259       .  A
O1770     Cr1787   1.976       .  S
O1770      C1771   1.257       .  A
C1771      O1772   1.255       .  A
C1771      C1938   1.463       .  S
O1772     Cr1788   1.982       .  S
O1773     Cr1788   2.028       .  S
O1773      C1774   1.274       .  A
C1774      O1775   1.258       .  A
C1774      C2069   1.473       .  S
O1775     Cr1789   1.950       .  S
O1776     Cr1789   1.993       .  S
O1776      C1777   1.253       .  A
C1777      C1906   1.492       .  S
O1778     Cr1787   2.008       .  S
O1778      C1786   1.270       .  A
O1779     Cr1787   1.974       .  S
O1779      C1780   1.262       .  A
C1780      O1781   1.280       .  A
O1781     Cr1788   2.050       .  S
O1782     Cr1788   2.018       .  S
C1783      C1925   1.499       .  S
O1784     Cr1789   1.977       .  S
O1785     Cr1789   1.964       .  S
O1785      C1786   1.261       .  A
Cr1787     O1790   1.766       .  S
Cr1788     O1790   1.782       .  S
Cr1789     O1790   1.768       .  S
O1791     Cr1809   1.998       .  S
O1791      C1799   1.261       .  A
O1792     Cr1809   1.983       .  S
O1792      C1793   1.260       .  A
C1793      O1794   1.255       .  A
C1793      C1941   1.464       .  S
O1794     Cr1810   1.981       .  S
O1795     Cr1810   2.033       .  S
O1795      C1796   1.273       .  A
C1796      O1797   1.254       .  A
C1796      C2146   1.476       .  S
O1797     Cr1811   1.949       .  S
O1798     Cr1811   2.013       .  S
O1798      C1799   1.261       .  A
C1799      C1890   1.489       .  S
O1800     Cr1809   2.004       .  S
O1800      C1808   1.268       .  A
O1801     Cr1809   1.981       .  S
O1801      C1802   1.262       .  A
C1802      O1803   1.280       .  A
O1803     Cr1810   2.055       .  S
O1804     Cr1810   1.998       .  S
O1804      C1805   1.264       .  A
C1805      O1806   1.261       .  A
C1805      C1877   1.484       .  S
O1806     Cr1811   1.985       .  S
O1807     Cr1811   1.957       .  S
O1807      C1808   1.256       .  A
Cr1809     O1812   1.761       .  S
Cr1810     O1812   1.779       .  S
Cr1811     O1812   1.766       .  S
O1813     Cr1831   1.983       .  S
O1813      C1821   1.258       .  A
O1814     Cr1831   1.977       .  S
O1814      C1815   1.259       .  A
C1815      O1816   1.263       .  A
C1815      C1858   1.474       .  S
O1816     Cr1832   1.998       .  S
O1817     Cr1832   2.015       .  S
O1817      C1818   1.266       .  A
C1818      O1819   1.260       .  A
C1818      C2005   1.471       .  S
O1819     Cr1833   1.960       .  S
O1820     Cr1833   2.005       .  S
O1820      C1821   1.256       .  A
C1821      C1922   1.494       .  S
O1822     Cr1831   1.993       .  S
O1822      C1830   1.264       .  A
O1823     Cr1831   1.999       .  S
O1823      C1824   1.264       .  A
C1824      O1825   1.271       .  A
C1824      C2181   1.516       .  S
O1825     Cr1832   2.030       .  S
O1826     Cr1832   2.007       .  S
O1826      C1827   1.267       .  A
C1827      O1828   1.255       .  A
C1827      C1909   1.478       .  S
O1828     Cr1833   1.971       .  S
O1829     Cr1833   1.967       .  S
O1829      C1830   1.259       .  A
C1830      C2021   1.456       .  S
Cr1831     O1834   1.777       .  S
Cr1832     O1834   1.787       .  S
Cr1833     O1834   1.784       .  S
O1835     Cr1853   1.970       .  S
O1835      C1843   1.252       .  A
O1836     Cr1853   1.978       .  S
O1836      C1837   1.259       .  A
C1837      O1838   1.265       .  A
C1837      C1861   1.483       .  S
O1838     Cr1854   2.008       .  S
O1839     Cr1854   2.009       .  S
O1839      C1840   1.267       .  A
C1840      O1841   1.262       .  A
C1840      C1957   1.465       .  S
O1841     Cr1855   1.971       .  S
O1842     Cr1855   1.997       .  S
O1842      C1843   1.255       .  A
C1843      C1874   1.476       .  S
O1844     Cr1853   1.994       .  S
O1844      C1852   1.265       .  A
O1845     Cr1853   1.980       .  S
O1845      C1846   1.261       .  A
O1848      C1849   1.267       .  A
C1849      O1850   1.257       .  A
C1849      C1893   1.487       .  S
O1851     Cr1855   1.971       .  S
O1851      C1852   1.261       .  A
C1852      C1970   1.459       .  S
Cr1853     O1856   1.783       .  S
Cr1854     O1856   1.786       .  S
Cr1855     O1856   1.786       .  S
C1857      C1858   1.394       .  A
C1857      C1862   1.402       .  A
C1857      H1864   1.085       .  S
C1858      C1859   1.419       .  A
C1859      C1860   1.407       .  A
C1859      C1866   1.512       .  S
C1860      C1861   1.400       .  A
C1860      H1865   1.084       .  S
C1861      C1862   1.424       .  A
C1862      C1863   1.509       .  S
C1863      F1867   1.384       .  S
C1863      F1868   1.376       .  S
C1863      F1869   1.380       .  S
C1866      F1870   1.384       .  S
C1866      F1871   1.381       .  S
C1866      F1872   1.385       .  S
C1873      C1874   1.408       .  A
C1873      C1878   1.411       .  A
C1873      H1880   1.083       .  S
C1874      C1875   1.413       .  A
C1875      C1876   1.402       .  A
C1875      C1882   1.523       .  S
C1876      C1877   1.409       .  A
C1876      H1881   1.085       .  S
C1877      C1878   1.414       .  A
C1878      C1879   1.515       .  S
C1879      F1883   1.385       .  S
C1879      F1884   1.382       .  S
C1879      F1885   1.382       .  S
C1882      F1886   1.383       .  S
C1882      F1887   1.380       .  S
C1882      F1888   1.386       .  S
C1889      C1890   1.402       .  A
C1889      C1894   1.409       .  A
C1889      H1896   1.083       .  S
C1890      C1891   1.420       .  A
C1891      C1892   1.415       .  A
C1891      C1898   1.518       .  S
C1892      C1893   1.405       .  A
C1892      H1897   1.082       .  S
C1893      C1894   1.420       .  A
C1894      C1895   1.517       .  S
C1895      F1899   1.385       .  S
C1895      F1900   1.383       .  S
C1895      F1901   1.381       .  S
C1898      F1902   1.382       .  S
C1898      F1903   1.383       .  S
C1898      F1904   1.385       .  S
C1905      C1906   1.403       .  A
C1905      C1910   1.405       .  A
C1905      H1912   1.082       .  S
C1906      C1907   1.424       .  A
C1907      C1908   1.411       .  A
C1907      C1914   1.514       .  S
C1908      C1909   1.400       .  A
C1908      H1913   1.082       .  S
C1909      C1910   1.417       .  A
C1910      C1911   1.517       .  S
C1911      F1915   1.385       .  S
C1911      F1916   1.383       .  S
C1911      F1917   1.382       .  S
C1914      F1918   1.382       .  S
C1914      F1919   1.384       .  S
C1914      F1920   1.384       .  S
C1921      C1922   1.397       .  A
C1921      C1926   1.402       .  A
C1921      H1928   1.084       .  S
C1922      C1923   1.425       .  A
C1923      C1924   1.416       .  A
C1923      C1930   1.516       .  S
C1924      C1925   1.405       .  A
C1924      H1929   1.084       .  S
C1925      C1926   1.429       .  A
C1926      C1927   1.520       .  S
C1927      F1931   1.385       .  S
C1930      F1934   1.378       .  S
C1930      F1935   1.382       .  S
C1930      F1936   1.385       .  S
C1937      C1938   1.403       .  A
C1937      C1942   1.405       .  A
C1937      H1944   1.083       .  S
C1938      C1939   1.410   1_455  A
C1939      C1940   1.401       .  A
C1939      C1946   1.516       .  S
C1940      C1941   1.402       .  A
C1940      H1945   1.085       .  S
C1941      C1942   1.411   1_655  A
C1942      C1943   1.516       .  S
C1943      F1947   1.385       .  S
C1943      F1948   1.383       .  S
C1943      F1949   1.383       .  S
C1946      F1950   1.383       .  S
C1946      F1951   1.383       .  S
C1946      F1952   1.385       .  S
C1953      C1954   1.404       .  A
C1953      C1958   1.396   1_565  A
C1953      H1960   1.082       .  S
C1954      C1955   1.419   1_556  A
C1955      C1962   1.517       .  S
C1956      C1957   1.400   1_554  A
C1956      H1961   1.084       .  S
C1958      C1959   1.514       .  S
C1959      F1963   1.385       .  S
C1962      F1966   1.385       .  S
C1962      F1967   1.383       .  S
C1969      C1970   1.403       .  A
C1969      C1974   1.406       .  A
C1969      H1976   1.083       .  S
C1970      C1971   1.413   1_556  A
C1971      C1972   1.395       .  A
C1971      C1978   1.516       .  S
C1972      C1973   1.398   1_554  A
C1972      H1977   1.085       .  S
C1973      C1974   1.411       .  A
C1974      C1975   1.516       .  S
C1975      F1979   1.384       .  S
C1975      F1980   1.382       .  S
C1975      F1981   1.384       .  S
C1978      F1982   1.384       .  S
C1978      F1983   1.381   1_554  S
C1978      F1984   1.384       .  S
C1985      C1986   1.403       .  A
C1985      C1990   1.410   1_655  A
C1985      H1992   1.082       .  S
C1987      C1988   1.420   1_665  A
C1987      C1994   1.521       .  S
C1988      H1993   1.081       .  S
C1989      C1990   1.428       .  A
C1991      F1995   1.385       .  S
C1991      F1996   1.384       .  S
C1991      F1997   1.382       .  S
C1994      F1998   1.383       .  S
C1994      F1999   1.384       .  S
C1994      F2000   1.385   1_565  S
C2001      C2002   1.406       .  A
C2001      C2006   1.405   1_565  A
C2001      H2008   1.080       .  S
C2002      C2003   1.427       .  A
C2003      C2010   1.524       .  S
C2004      C2005   1.396       .  A
C2004      H2009   1.083       .  S
C2006      C2007   1.519       .  S
C2007      F2011   1.385   1_545  S
C2010      F2014   1.382       .  S
C2010      F2015   1.384       .  S
C2017      C2018   1.397       .  A
C2017      C2022   1.397       .  A
C2017      H2024   1.086       .  S
C2018      C2019   1.411       .  A
C2019      C2020   1.404       .  A
C2019      C2026   1.516       .  S
C2020      C2021   1.402       .  A
C2020      H2025   1.084       .  S
C2021      C2022   1.416       .  A
C2022      C2023   1.520       .  S
C2023      F2027   1.384       .  S
C2023      F2028   1.381       .  S
C2023      F2029   1.383       .  S
C2026      F2030   1.382       .  S
C2026      F2031   1.384       .  S
C2026      F2032   1.385       .  S
C2033      C2034   1.409       .  A
C2033      C2038   1.415   1_455  A
C2033      H2040   1.081   1_455  S
C2034      C2035   1.427       .  A
C2035      C2042   1.521       .  S
C2036      H2041   1.082       .  S
C2037      C2038   1.429       .  A
C2038      C2039   1.522       .  S
C2039      F2043   1.385       .  S
C2039      F2044   1.383       .  S
C2039      F2045   1.381       .  S
C2042      F2046   1.384       .  S
C2042      F2047   1.383       .  S
C2049      C2050   1.405       .  A
C2049      C2054   1.406       .  A
C2049      H2056   1.083       .  S
C2050      C2051   1.411   1_655  A
C2051      C2052   1.404       .  A
C2051      C2058   1.517       .  S
C2052      C2053   1.404       .  A
C2052      H2057   1.082       .  S
C2053      C2054   1.412   1_455  A
C2054      C2055   1.516       .  S
C2055      F2059   1.385       .  S
C2055      F2060   1.383       .  S
C2055      F2061   1.383       .  S
C2058      F2062   1.384       .  S
C2058      F2063   1.382       .  S
C2058      F2064   1.384       .  S
C2065      C2066   1.403       .  A
C2065      C2070   1.407       .  A
C2065      H2072   1.083       .  S
C2066      C2067   1.412       .  A
C2067      C2068   1.393       .  A
C2067      C2074   1.518       .  S
C2068      C2069   1.405       .  A
C2068      H2073   1.083       .  S
C2069      C2070   1.415       .  A
C2070      C2071   1.516       .  S
C2071      F2075   1.385       .  S
C2071      F2076   1.383       .  S
C2071      F2077   1.382       .  S
C2074      F2078   1.381       .  S
C2074      F2079   1.383       .  S
C2074      F2080   1.386       .  S
C2081      C2082   1.404       .  A
C2081      C2086   1.405       .  A
C2081      H2088   1.084       .  S
C2082      C2083   1.420       .  A
C2083      C2084   1.398       .  A
C2083      C2090   1.522       .  S
C2084      C2085   1.398       .  A
C2084      H2089   1.085       .  S
C2085      C2086   1.411       .  A
C2087      F2091   1.384       .  S
C2087      F2092   1.377       .  S
C2087      F2093   1.382       .  S
C2090      F2094   1.382       .  S
C2090      F2095   1.382       .  S
C2090      F2096   1.385       .  S
C2097      C2098   1.405       .  A
C2097      C2102   1.411       .  A
C2097      H2104   1.083       .  S
C2098      C2099   1.420       .  A
C2099      C2100   1.414       .  A
C2099      C2106   1.519       .  S
C2100      C2101   1.409       .  A
C2100      H2105   1.083       .  S
C2101      C2102   1.420       .  A
C2102      C2103   1.518       .  S
C2103      F2107   1.382       .  S
C2103      F2108   1.383       .  S
C2106      F2110   1.382       .  S
C2106      F2112   1.385       .  S
C2113      C2114   1.405       .  A
C2113      C2118   1.407       .  A
C2113      H2120   1.084       .  S
C2114      C2115   1.427       .  A
C2115      C2116   1.414       .  A
C2115      C2122   1.520       .  S
C2116      C2117   1.401       .  A
C2116      H2121   1.083       .  S
C2117      C2118   1.416       .  A
C2118      C2119   1.516       .  S
C2119      F2123   1.385       .  S
C2119      F2124   1.382       .  S
C2119      F2125   1.383       .  S
C2122      F2126   1.383       .  S
C2122      F2127   1.383       .  S
C2122      F2128   1.385       .  S
C2129      C2130   1.402       .  A
C2129      C2134   1.416       .  A
C2129      H2136   1.082       .  S
C2130      C2131   1.420       .  A
C2131      C2132   1.407       .  A
C2131      C2138   1.518       .  S
C2132      C2133   1.405       .  A
C2132      H2137   1.081       .  S
C2133      C2134   1.432       .  A
C2134      C2135   1.520       .  S
C2135      F2139   1.385       .  S
C2135      F2140   1.381       .  S
C2135      F2141   1.384       .  S
C2138      F2144   1.385       .  S
C2145      C2146   1.405       .  A
C2145      C2150   1.408       .  A
C2145      H2152   1.084       .  S
C2146      C2147   1.425       .  A
C2147      C2148   1.397       .  A
C2147      C2154   1.525       .  S
C2148      C2149   1.398       .  A
C2148      H2153   1.084       .  S
C2149      C2150   1.413       .  A
C2150      C2151   1.515       .  S
C2151      F2155   1.385       .  S
C2151      F2156   1.382       .  S
C2151      F2157   1.383       .  S
C2154      F2158   1.382       .  S
C2154      F2159   1.384       .  S
C2154      F2160   1.385       .  S
C2161      C2162   1.404       .  A
C2161      C2166   1.399       .  A
C2162      C2163   1.418       .  A
C2163      C2164   1.405       .  A
C2163      C2170   1.517       .  S
C2164      C2165   1.401       .  A
C2164      H2169   1.083       .  S
C2165      C2166   1.409       .  A
C2166      C2167   1.518       .  S
C2167      F2171   1.383       .  S
C2167      F2172   1.379       .  S
C2167      F2173   1.385       .  S
C2170      F2174   1.383   1_565  S
C2170      F2175   1.380       .  S
C2170      F2176   1.385       .  S
C2177      C2178   1.408       .  A
C2177      C2182   1.421       .  A
C2177      H2184   1.082       .  S
C2178      C2179   1.426       .  A
C2179      C2180   1.420       .  A
C2179      C2186   1.519       .  S
C2180      C2181   1.408       .  A
C2180      H2185   1.083       .  S
C2181      C2182   1.427       .  A
C2182      C2183   1.519       .  S
C2183      F2187   1.385       .  S
C2183      F2188   1.384       .  S
C2183      F2189   1.382       .  S
C2186      F2190   1.382       .  S
C2186      F2191   1.384       .  S
C2186      F2192   1.385       .  S
C2193      C2194   1.403       .  A
C2193      C2198   1.412       .  A
C2193      H2200   1.083       .  S
C2194      C2195   1.420       .  A
C2195      C2196   1.405       .  A
C2195      C2202   1.519       .  S
C2196      C2197   1.402       .  A
C2196      H2201   1.084       .  S
C2197      C2198   1.420       .  A
C2198      C2199   1.519       .  S
C2199      F2203   1.384       .  S
C2199      F2204   1.383       .  S
C2199      F2205   1.382       .  S
C2202      F2206   1.382       .  S
C2202      F2207   1.383       .  S
C2202      F2208   1.385       .  S
C2209      C2210   1.408       .  A
C2209      C2214   1.404       .  A
C2209      H2216   1.084       .  S
C2210      C2211   1.415       .  A
C2211      C2212   1.414       .  A
C2211      C2218   1.512       .  S
C2212      C2213   1.407       .  A
C2212      H2217   1.082       .  S
C2213      C2214   1.410       .  A
C2214      C2215   1.517       .  S
C2215      F2219   1.385       .  S
C2215      F2220   1.382       .  S
C2215      F2221   1.384       .  S
C2218      F2222   1.376       .  S
C2218      F2223   1.382       .  S
C2218      F2224   1.385       .  S
C2225      C2226   1.404       .  A
C2225      C2230   1.409       .  A
C2225      H2232   1.084       .  S
C2226      C2227   1.412       .  A
C2227      C2228   1.404       .  A
C2227      C2234   1.518       .  S
C2228      C2229   1.405       .  A
C2228      H2233   1.084       .  S
C2229      C2230   1.413       .  A
C2230      C2231   1.515       .  S
C2231      F2235   1.384       .  S
C2231      F2236   1.383       .  S
C2231      F2237   1.383       .  S
C2234      F2238   1.383       .  S
C2234      F2239   1.382       .  S
C2234      F2240   1.385       .  S
